aqu_catunit.ele: written by SWAT+ editor v2.0.4 on 2022-01-21 12:23
      id  name                   obj_typ  obj_typ_no      bsn_frac      sub_frac      reg_frac  
       1  aqu011                     aqu           1       0.01039       0.00000       0.00000  
       2  aqu012                     aqu           2       0.03906       0.00000       0.00000  
       3  aqu021                     aqu           3       0.00124       0.00000       0.00000  
       4  aqu022                     aqu           4       0.00975       0.00000       0.00000  
       5  aqu031                     aqu           5       0.00111       0.00000       0.00000  
       6  aqu032                     aqu           6       0.00161       0.00000       0.00000  
       7  aqu041                     aqu           7       0.00061       0.00000       0.00000  
       8  aqu042                     aqu           8       0.01548       0.00000       0.00000  
       9  aqu051                     aqu           9       0.00214       0.00000       0.00000  
      10  aqu052                     aqu          10       0.01834       0.00000       0.00000  
      11  aqu061                     aqu          11       0.00030       0.00000       0.00000  
      12  aqu062                     aqu          12       0.00084       0.00000       0.00000  
      13  aqu071                     aqu          13       0.00677       0.00000       0.00000  
      14  aqu072                     aqu          14       0.01262       0.00000       0.00000  
      15  aqu081                     aqu          15       0.00106       0.00000       0.00000  
      16  aqu082                     aqu          16       0.02703       0.00000       0.00000  
      17  aqu091                     aqu          17       0.00088       0.00000       0.00000  
      18  aqu092                     aqu          18       0.02848       0.00000       0.00000  
      19  aqu101                     aqu          19       0.00046       0.00000       0.00000  
      20  aqu102                     aqu          20       0.00044       0.00000       0.00000  
      21  aqu111                     aqu          21       0.00181       0.00000       0.00000  
      22  aqu112                     aqu          22       0.00802       0.00000       0.00000  
      23  aqu121                     aqu          23       0.00294       0.00000       0.00000  
      24  aqu122                     aqu          24       0.01689       0.00000       0.00000  
      25  aqu131                     aqu          25       0.00361       0.00000       0.00000  
      26  aqu132                     aqu          26       0.07406       0.00000       0.00000  
      27  aqu141                     aqu          27       0.00533       0.00000       0.00000  
      28  aqu142                     aqu          28       0.04399       0.00000       0.00000  
      29  aqu151                     aqu          29       0.00136       0.00000       0.00000  
      30  aqu152                     aqu          30       0.02545       0.00000       0.00000  
      31  aqu161                     aqu          31       0.00467       0.00000       0.00000  
      32  aqu162                     aqu          32       0.02048       0.00000       0.00000  
      33  aqu171                     aqu          33       0.00130       0.00000       0.00000  
      34  aqu172                     aqu          34       0.04147       0.00000       0.00000  
      35  aqu181                     aqu          35       0.00279       0.00000       0.00000  
      36  aqu182                     aqu          36       0.01405       0.00000       0.00000  
      37  aqu191                     aqu          37       0.00172       0.00000       0.00000  
      38  aqu192                     aqu          38       0.00182       0.00000       0.00000  
      39  aqu201                     aqu          39       0.00254       0.00000       0.00000  
      40  aqu202                     aqu          40       0.00864       0.00000       0.00000  
      41  aqu211                     aqu          41       0.00115       0.00000       0.00000  
      42  aqu212                     aqu          42       0.02517       0.00000       0.00000  
      43  aqu221                     aqu          43       0.00083       0.00000       0.00000  
      44  aqu222                     aqu          44       0.00563       0.00000       0.00000  
      45  aqu231                     aqu          45       0.00053       0.00000       0.00000  
      46  aqu232                     aqu          46       0.02219       0.00000       0.00000  
      47  aqu241                     aqu          47       0.00387       0.00000       0.00000  
      48  aqu242                     aqu          48       0.06793       0.00000       0.00000  
      49  aqu251                     aqu          49       0.00092       0.00000       0.00000  
      50  aqu252                     aqu          50       0.01908       0.00000       0.00000  
      51  aqu261                     aqu          51       0.00382       0.00000       0.00000  
      52  aqu262                     aqu          52       0.03294       0.00000       0.00000  
      53  aqu271                     aqu          53       0.00812       0.00000       0.00000  
      54  aqu272                     aqu          54       0.12014       0.00000       0.00000  
      55  aqu281                     aqu          55       0.00001       0.00000       0.00000  
      56  aqu291                     aqu          56       0.00085       0.00000       0.00000  
      57  aqu292                     aqu          57       0.01287       0.00000       0.00000  
      58  aqu301                     aqu          58       0.00069       0.00000       0.00000  
      59  aqu302                     aqu          59       0.02173       0.00000       0.00000  
      60  aqu311                     aqu          60       0.00178       0.00000       0.00000  
      61  aqu312                     aqu          61       0.03011       0.00000       0.00000  
      62  aqu321                     aqu          62       0.00003       0.00000       0.00000  
      63  aqu322                     aqu          63       0.00001       0.00000       0.00000  
      64  aqu331                     aqu          64       0.00106       0.00000       0.00000  
      65  aqu332                     aqu          65       0.02323       0.00000       0.00000  
      66  aqu341                     aqu          66       0.00133       0.00000       0.00000  
      67  aqu342                     aqu          67       0.03268       0.00000       0.00000  
      68  aqu351                     aqu          68       0.00055       0.00000       0.00000  
      69  aqu352                     aqu          69       0.00332       0.00000       0.00000  
      70  aqu361                     aqu          70       0.00240       0.00000       0.00000  
      71  aqu362                     aqu          71       0.03410       0.00000       0.00000  
      72  aqu371                     aqu          72       0.00055       0.00000       0.00000  
      73  aqu372                     aqu          73       0.01980       0.00000       0.00000  
      74  aqu381                     aqu          74       0.00058       0.00000       0.00000  
      75  aqu382                     aqu          75       0.01735       0.00000       0.00000  
      76  aqu391                     aqu          76       0.00089       0.00000       0.00000  
      77  aqu392                     aqu          77       0.02619       0.00000       0.00000  
      78  aqu_deep001                aqu          78       1.00597       0.00000       0.00000  
