aquifer.aqu: written by SWAT+ editor v2.0.4 on 2022-01-21 12:23
      id  name                          init        gw_flo       dep_bot        dep_wt         no3_n         sol_p        carbon      flo_dist        bf_max      alpha_bf         revap       rchg_dp      spec_yld       hl_no3n       flo_min     revap_min
       1  aqu011                    initaqu1       0.05000       1.20000       0.50000      10.00000       0.01000       0.50000      50.00000       1.00000       0.95000       0.02000       0.00000       0.05000       0.00000       3.00000    1500.00000
       2  aqu012                    initaqu1       0.05000       1.20000       0.50000      10.00000       0.01000       0.50000      50.00000       1.00000       0.95000       0.02000       0.00000       0.05000       0.00000       3.00000    1500.00000
       3  aqu021                    initaqu1       0.05000       1.20000       0.50000      10.00000       0.01000       0.50000      50.00000       1.00000       0.95000       0.02000       0.00000       0.05000       0.00000       3.00000    1500.00000
       4  aqu022                    initaqu1       0.05000       1.20000       0.50000      10.00000       0.01000       0.50000      50.00000       1.00000       0.95000       0.02000       0.00000       0.05000       0.00000       3.00000    1500.00000
       5  aqu031                    initaqu1       0.05000       1.20000       0.50000      10.00000       0.01000       0.50000      50.00000       1.00000       0.95000       0.02000       0.00000       0.05000       0.00000       3.00000    1500.00000
       6  aqu032                    initaqu1       0.05000       1.20000       0.50000      10.00000       0.01000       0.50000      50.00000       1.00000       0.95000       0.02000       0.00000       0.05000       0.00000       3.00000    1500.00000
       7  aqu041                    initaqu1       0.05000       1.20000       0.50000      10.00000       0.01000       0.50000      50.00000       1.00000       0.95000       0.02000       0.00000       0.05000       0.00000       3.00000    1500.00000
       8  aqu042                    initaqu1       0.05000       1.20000       0.50000      10.00000       0.01000       0.50000      50.00000       1.00000       0.95000       0.02000       0.00000       0.05000       0.00000       3.00000    1500.00000
       9  aqu051                    initaqu1       0.05000       1.20000       0.50000      10.00000       0.01000       0.50000      50.00000       1.00000       0.95000       0.02000       0.00000       0.05000       0.00000       3.00000    1500.00000
      10  aqu052                    initaqu1       0.05000       1.20000       0.50000      10.00000       0.01000       0.50000      50.00000       1.00000       0.95000       0.02000       0.00000       0.05000       0.00000       3.00000    1500.00000
      11  aqu061                    initaqu1       0.05000       1.20000       0.50000      10.00000       0.01000       0.50000      50.00000       1.00000       0.95000       0.02000       0.00000       0.05000       0.00000       3.00000    1500.00000
      12  aqu062                    initaqu1       0.05000       1.20000       0.50000      10.00000       0.01000       0.50000      50.00000       1.00000       0.95000       0.02000       0.00000       0.05000       0.00000       3.00000    1500.00000
      13  aqu071                    initaqu1       0.05000       1.20000       0.50000      10.00000       0.01000       0.50000      50.00000       1.00000       0.95000       0.02000       0.00000       0.05000       0.00000       3.00000    1500.00000
      14  aqu072                    initaqu1       0.05000       1.20000       0.50000      10.00000       0.01000       0.50000      50.00000       1.00000       0.95000       0.02000       0.00000       0.05000       0.00000       3.00000    1500.00000
      15  aqu081                    initaqu1       0.05000       1.20000       0.50000      10.00000       0.01000       0.50000      50.00000       1.00000       0.95000       0.02000       0.00000       0.05000       0.00000       3.00000    1500.00000
      16  aqu082                    initaqu1       0.05000       1.20000       0.50000      10.00000       0.01000       0.50000      50.00000       1.00000       0.95000       0.02000       0.00000       0.05000       0.00000       3.00000    1500.00000
      17  aqu091                    initaqu1       0.05000       1.20000       0.50000      10.00000       0.01000       0.50000      50.00000       1.00000       0.95000       0.02000       0.00000       0.05000       0.00000       3.00000    1500.00000
      18  aqu092                    initaqu1       0.05000       1.20000       0.50000      10.00000       0.01000       0.50000      50.00000       1.00000       0.95000       0.02000       0.00000       0.05000       0.00000       3.00000    1500.00000
      19  aqu101                    initaqu1       0.05000       1.20000       0.50000      10.00000       0.01000       0.50000      50.00000       1.00000       0.95000       0.02000       0.00000       0.05000       0.00000       3.00000    1500.00000
      20  aqu102                    initaqu1       0.05000       1.20000       0.50000      10.00000       0.01000       0.50000      50.00000       1.00000       0.95000       0.02000       0.00000       0.05000       0.00000       3.00000    1500.00000
      21  aqu111                    initaqu1       0.05000       1.20000       0.50000      10.00000       0.01000       0.50000      50.00000       1.00000       0.95000       0.02000       0.00000       0.05000       0.00000       3.00000    1500.00000
      22  aqu112                    initaqu1       0.05000       1.20000       0.50000      10.00000       0.01000       0.50000      50.00000       1.00000       0.95000       0.02000       0.00000       0.05000       0.00000       3.00000    1500.00000
      23  aqu121                    initaqu1       0.05000       1.20000       0.50000      10.00000       0.01000       0.50000      50.00000       1.00000       0.95000       0.02000       0.00000       0.05000       0.00000       3.00000    1500.00000
      24  aqu122                    initaqu1       0.05000       1.20000       0.50000      10.00000       0.01000       0.50000      50.00000       1.00000       0.95000       0.02000       0.00000       0.05000       0.00000       3.00000    1500.00000
      25  aqu131                    initaqu1       0.05000       1.20000       0.50000      10.00000       0.01000       0.50000      50.00000       1.00000       0.95000       0.02000       0.00000       0.05000       0.00000       3.00000    1500.00000
      26  aqu132                    initaqu1       0.05000       1.20000       0.50000      10.00000       0.01000       0.50000      50.00000       1.00000       0.95000       0.02000       0.00000       0.05000       0.00000       3.00000    1500.00000
      27  aqu141                    initaqu1       0.05000       1.20000       0.50000      10.00000       0.01000       0.50000      50.00000       1.00000       0.95000       0.02000       0.00000       0.05000       0.00000       3.00000    1500.00000
      28  aqu142                    initaqu1       0.05000       1.20000       0.50000      10.00000       0.01000       0.50000      50.00000       1.00000       0.95000       0.02000       0.00000       0.05000       0.00000       3.00000    1500.00000
      29  aqu151                    initaqu1       0.05000       1.20000       0.50000      10.00000       0.01000       0.50000      50.00000       1.00000       0.95000       0.02000       0.00000       0.05000       0.00000       3.00000    1500.00000
      30  aqu152                    initaqu1       0.05000       1.20000       0.50000      10.00000       0.01000       0.50000      50.00000       1.00000       0.95000       0.02000       0.00000       0.05000       0.00000       3.00000    1500.00000
      31  aqu161                    initaqu1       0.05000       1.20000       0.50000      10.00000       0.01000       0.50000      50.00000       1.00000       0.95000       0.02000       0.00000       0.05000       0.00000       3.00000    1500.00000
      32  aqu162                    initaqu1       0.05000       1.20000       0.50000      10.00000       0.01000       0.50000      50.00000       1.00000       0.95000       0.02000       0.00000       0.05000       0.00000       3.00000    1500.00000
      33  aqu171                    initaqu1       0.05000       1.20000       0.50000      10.00000       0.01000       0.50000      50.00000       1.00000       0.95000       0.02000       0.00000       0.05000       0.00000       3.00000    1500.00000
      34  aqu172                    initaqu1       0.05000       1.20000       0.50000      10.00000       0.01000       0.50000      50.00000       1.00000       0.95000       0.02000       0.00000       0.05000       0.00000       3.00000    1500.00000
      35  aqu181                    initaqu1       0.05000       1.20000       0.50000      10.00000       0.01000       0.50000      50.00000       1.00000       0.95000       0.02000       0.00000       0.05000       0.00000       3.00000    1500.00000
      36  aqu182                    initaqu1       0.05000       1.20000       0.50000      10.00000       0.01000       0.50000      50.00000       1.00000       0.95000       0.02000       0.00000       0.05000       0.00000       3.00000    1500.00000
      37  aqu191                    initaqu1       0.05000       1.20000       0.50000      10.00000       0.01000       0.50000      50.00000       1.00000       0.95000       0.02000       0.00000       0.05000       0.00000       3.00000    1500.00000
      38  aqu192                    initaqu1       0.05000       1.20000       0.50000      10.00000       0.01000       0.50000      50.00000       1.00000       0.95000       0.02000       0.00000       0.05000       0.00000       3.00000    1500.00000
      39  aqu201                    initaqu1       0.05000       1.20000       0.50000      10.00000       0.01000       0.50000      50.00000       1.00000       0.95000       0.02000       0.00000       0.05000       0.00000       3.00000    1500.00000
      40  aqu202                    initaqu1       0.05000       1.20000       0.50000      10.00000       0.01000       0.50000      50.00000       1.00000       0.95000       0.02000       0.00000       0.05000       0.00000       3.00000    1500.00000
      41  aqu211                    initaqu1       0.05000       1.20000       0.50000      10.00000       0.01000       0.50000      50.00000       1.00000       0.95000       0.02000       0.00000       0.05000       0.00000       3.00000    1500.00000
      42  aqu212                    initaqu1       0.05000       1.20000       0.50000      10.00000       0.01000       0.50000      50.00000       1.00000       0.95000       0.02000       0.00000       0.05000       0.00000       3.00000    1500.00000
      43  aqu221                    initaqu1       0.05000       1.20000       0.50000      10.00000       0.01000       0.50000      50.00000       1.00000       0.95000       0.02000       0.00000       0.05000       0.00000       3.00000    1500.00000
      44  aqu222                    initaqu1       0.05000       1.20000       0.50000      10.00000       0.01000       0.50000      50.00000       1.00000       0.95000       0.02000       0.00000       0.05000       0.00000       3.00000    1500.00000
      45  aqu231                    initaqu1       0.05000       1.20000       0.50000      10.00000       0.01000       0.50000      50.00000       1.00000       0.95000       0.02000       0.00000       0.05000       0.00000       3.00000    1500.00000
      46  aqu232                    initaqu1       0.05000       1.20000       0.50000      10.00000       0.01000       0.50000      50.00000       1.00000       0.95000       0.02000       0.00000       0.05000       0.00000       3.00000    1500.00000
      47  aqu241                    initaqu1       0.05000       1.20000       0.50000      10.00000       0.01000       0.50000      50.00000       1.00000       0.95000       0.02000       0.00000       0.05000       0.00000       3.00000    1500.00000
      48  aqu242                    initaqu1       0.05000       1.20000       0.50000      10.00000       0.01000       0.50000      50.00000       1.00000       0.95000       0.02000       0.00000       0.05000       0.00000       3.00000    1500.00000
      49  aqu251                    initaqu1       0.05000       1.20000       0.50000      10.00000       0.01000       0.50000      50.00000       1.00000       0.95000       0.02000       0.00000       0.05000       0.00000       3.00000    1500.00000
      50  aqu252                    initaqu1       0.05000       1.20000       0.50000      10.00000       0.01000       0.50000      50.00000       1.00000       0.95000       0.02000       0.00000       0.05000       0.00000       3.00000    1500.00000
      51  aqu261                    initaqu1       0.05000       1.20000       0.50000      10.00000       0.01000       0.50000      50.00000       1.00000       0.95000       0.02000       0.00000       0.05000       0.00000       3.00000    1500.00000
      52  aqu262                    initaqu1       0.05000       1.20000       0.50000      10.00000       0.01000       0.50000      50.00000       1.00000       0.95000       0.02000       0.00000       0.05000       0.00000       3.00000    1500.00000
      53  aqu271                    initaqu1       0.05000       1.20000       0.50000      10.00000       0.01000       0.50000      50.00000       1.00000       0.95000       0.02000       0.00000       0.05000       0.00000       3.00000    1500.00000
      54  aqu272                    initaqu1       0.05000       1.20000       0.50000      10.00000       0.01000       0.50000      50.00000       1.00000       0.95000       0.02000       0.00000       0.05000       0.00000       3.00000    1500.00000
      55  aqu281                    initaqu1       0.05000       1.20000       0.50000      10.00000       0.01000       0.50000      50.00000       1.00000       0.95000       0.02000       0.00000       0.05000       0.00000       3.00000    1500.00000
      56  aqu291                    initaqu1       0.05000       1.20000       0.50000      10.00000       0.01000       0.50000      50.00000       1.00000       0.95000       0.02000       0.00000       0.05000       0.00000       3.00000    1500.00000
      57  aqu292                    initaqu1       0.05000       1.20000       0.50000      10.00000       0.01000       0.50000      50.00000       1.00000       0.95000       0.02000       0.00000       0.05000       0.00000       3.00000    1500.00000
      58  aqu301                    initaqu1       0.05000       1.20000       0.50000      10.00000       0.01000       0.50000      50.00000       1.00000       0.95000       0.02000       0.00000       0.05000       0.00000       3.00000    1500.00000
      59  aqu302                    initaqu1       0.05000       1.20000       0.50000      10.00000       0.01000       0.50000      50.00000       1.00000       0.95000       0.02000       0.00000       0.05000       0.00000       3.00000    1500.00000
      60  aqu311                    initaqu1       0.05000       1.20000       0.50000      10.00000       0.01000       0.50000      50.00000       1.00000       0.95000       0.02000       0.00000       0.05000       0.00000       3.00000    1500.00000
      61  aqu312                    initaqu1       0.05000       1.20000       0.50000      10.00000       0.01000       0.50000      50.00000       1.00000       0.95000       0.02000       0.00000       0.05000       0.00000       3.00000    1500.00000
      62  aqu321                    initaqu1       0.05000       1.20000       0.50000      10.00000       0.01000       0.50000      50.00000       1.00000       0.95000       0.02000       0.00000       0.05000       0.00000       3.00000    1500.00000
      63  aqu322                    initaqu1       0.05000       1.20000       0.50000      10.00000       0.01000       0.50000      50.00000       1.00000       0.95000       0.02000       0.00000       0.05000       0.00000       3.00000    1500.00000
      64  aqu331                    initaqu1       0.05000       1.20000       0.50000      10.00000       0.01000       0.50000      50.00000       1.00000       0.95000       0.02000       0.00000       0.05000       0.00000       3.00000    1500.00000
      65  aqu332                    initaqu1       0.05000       1.20000       0.50000      10.00000       0.01000       0.50000      50.00000       1.00000       0.95000       0.02000       0.00000       0.05000       0.00000       3.00000    1500.00000
      66  aqu341                    initaqu1       0.05000       1.20000       0.50000      10.00000       0.01000       0.50000      50.00000       1.00000       0.95000       0.02000       0.00000       0.05000       0.00000       3.00000    1500.00000
      67  aqu342                    initaqu1       0.05000       1.20000       0.50000      10.00000       0.01000       0.50000      50.00000       1.00000       0.95000       0.02000       0.00000       0.05000       0.00000       3.00000    1500.00000
      68  aqu351                    initaqu1       0.05000       1.20000       0.50000      10.00000       0.01000       0.50000      50.00000       1.00000       0.95000       0.02000       0.00000       0.05000       0.00000       3.00000    1500.00000
      69  aqu352                    initaqu1       0.05000       1.20000       0.50000      10.00000       0.01000       0.50000      50.00000       1.00000       0.95000       0.02000       0.00000       0.05000       0.00000       3.00000    1500.00000
      70  aqu361                    initaqu1       0.05000       1.20000       0.50000      10.00000       0.01000       0.50000      50.00000       1.00000       0.95000       0.02000       0.00000       0.05000       0.00000       3.00000    1500.00000
      71  aqu362                    initaqu1       0.05000       1.20000       0.50000      10.00000       0.01000       0.50000      50.00000       1.00000       0.95000       0.02000       0.00000       0.05000       0.00000       3.00000    1500.00000
      72  aqu371                    initaqu1       0.05000       1.20000       0.50000      10.00000       0.01000       0.50000      50.00000       1.00000       0.95000       0.02000       0.00000       0.05000       0.00000       3.00000    1500.00000
      73  aqu372                    initaqu1       0.05000       1.20000       0.50000      10.00000       0.01000       0.50000      50.00000       1.00000       0.95000       0.02000       0.00000       0.05000       0.00000       3.00000    1500.00000
      74  aqu381                    initaqu1       0.05000       1.20000       0.50000      10.00000       0.01000       0.50000      50.00000       1.00000       0.95000       0.02000       0.00000       0.05000       0.00000       3.00000    1500.00000
      75  aqu382                    initaqu1       0.05000       1.20000       0.50000      10.00000       0.01000       0.50000      50.00000       1.00000       0.95000       0.02000       0.00000       0.05000       0.00000       3.00000    1500.00000
      76  aqu391                    initaqu1       0.05000       1.20000       0.50000      10.00000       0.01000       0.50000      50.00000       1.00000       0.95000       0.02000       0.00000       0.05000       0.00000       3.00000    1500.00000
      77  aqu392                    initaqu1       0.05000       1.20000       0.50000      10.00000       0.01000       0.50000      50.00000       1.00000       0.95000       0.02000       0.00000       0.05000       0.00000       3.00000    1500.00000
      78  aqu_deep001               initaqu1       0.00000     100.00000      20.00000       0.00000       0.00000       0.50000      50.00000       1.00000       0.01000       0.00000       0.00000       0.03000       0.00000       0.00000       0.00000  
