aquifer.con: written by SWAT+ editor v2.0.4 on 2022-01-21 12:22
      id  name                gis_id          area           lat           lon          elev       aqu               wst       cst      ovfl      rule   out_tot       obj_typ    obj_id       hyd_typ          frac  
       1  aqu011                  11      73.75000      41.37251     -82.51230     174.17999         1     s41378n82508w         0         0         0         1           aqu        78           rhg       1.00000  
       2  aqu012                  12     277.30000      41.37251     -82.51230     184.21082         2     s41378n82508w         0         0         0         2           aqu         1           tot       1.00000           aqu        78           rhg       1.00000  
       3  aqu021                  21       8.78000      41.36783     -82.49951     183.00000         3     s41378n82508w         0         0         0         2           sdc        13           tot       1.00000           aqu        78           rhg       1.00000  
       4  aqu022                  22      69.24000      41.36783     -82.49951     184.33752         4     s41378n82508w         0         0         0         2           aqu         3           tot       1.00000           aqu        78           rhg       1.00000  
       5  aqu031                  31       7.88000      41.36886     -82.50735     175.00000         5     s41378n82508w         0         0         0         2           sdc        12           tot       1.00000           aqu        78           rhg       1.00000  
       6  aqu032                  32      11.41000      41.36886     -82.50735     182.21472         6     s41378n82508w         0         0         0         2           aqu         5           tot       1.00000           aqu        78           rhg       1.00000  
       7  aqu041                  41       4.32000      41.35917     -82.51631     187.07001         7     s41378n82508w         0         0         0         2           sdc        12           tot       1.00000           aqu        78           rhg       1.00000  
       8  aqu042                  42     109.89000      41.35917     -82.51631     186.91919         8     s41378n82508w         0         0         0         2           aqu         7           tot       1.00000           aqu        78           rhg       1.00000  
       9  aqu051                  51      15.17000      41.35744     -82.49926     186.03000         9     s41378n82508w         0         0         0         2           sdc        16           tot       1.00000           aqu        78           rhg       1.00000  
      10  aqu052                  52     130.21000      41.35744     -82.49926     187.03817        10     s41378n82508w         0         0         0         2           aqu         9           tot       1.00000           aqu        78           rhg       1.00000  
      11  aqu061                  61       2.14000      41.36431     -82.50610     175.00000        11     s41378n82508w         0         0         0         2           sdc        15           tot       1.00000           aqu        78           rhg       1.00000  
      12  aqu062                  62       5.97000      41.36431     -82.50610     182.72697        12     s41378n82508w         0         0         0         2           aqu        11           tot       1.00000           aqu        78           rhg       1.00000  
      13  aqu071                  71      48.08000      41.35462     -82.50971     177.00000        13     s41378n82508w         0         0         0         2           sdc        16           tot       1.00000           aqu        78           rhg       1.00000  
      14  aqu072                  72      89.57000      41.35462     -82.50971     187.05638        14     s41378n82508w         0         0         0         2           aqu        13           tot       1.00000           aqu        78           rhg       1.00000  
      15  aqu081                  81       7.49000      41.33998     -82.48699     200.00999        15     s41378n82508w         0         0         0         2           sdc        21           tot       1.00000           aqu        78           rhg       1.00000  
      16  aqu082                  82     191.90000      41.33998     -82.48699     213.50057        16     s41378n82508w         0         0         0         2           aqu        15           tot       1.00000           aqu        78           rhg       1.00000  
      17  aqu091                  91       6.27000      41.34038     -82.49859     192.00000        17     s41378n82508w         0         0         0         2           sdc        21           tot       1.00000           aqu        78           rhg       1.00000  
      18  aqu092                  92     202.18000      41.34038     -82.49859     196.87595        18     s41378n82508w         0         0         0         2           aqu        17           tot       1.00000           aqu        78           rhg       1.00000  
      19  aqu101                 101       3.24000      41.34743     -82.51092     189.00000        19     s41378n82508w         0         0         0         2           sdc        38           tot       1.00000           aqu        78           rhg       1.00000  
      20  aqu102                 102       3.15000      41.34743     -82.51092     189.48571        20     s41378n82508w         0         0         0         2           aqu        19           tot       1.00000           aqu        78           rhg       1.00000  
      21  aqu111                 111      12.85000      41.34408     -82.52060     182.03999        21     s41378n82508w         0         0         0         2           sdc        39           tot       1.00000           aqu        78           rhg       1.00000  
      22  aqu112                 112      56.92000      41.34408     -82.52060     188.71627        22     s41378n82508w         0         0         0         2           aqu        21           tot       1.00000           aqu        78           rhg       1.00000  
      23  aqu121                 121      20.86000      41.33714     -82.50706     189.37000        23     s41378n82508w         0         0         0         2           sdc        39           tot       1.00000           aqu        78           rhg       1.00000  
      24  aqu122                 122     119.92000      41.33714     -82.50706     194.06679        24     s41378n82508w         0         0         0         2           aqu        23           tot       1.00000           aqu        78           rhg       1.00000  
      25  aqu131                 131      25.61000      41.32421     -82.53911     194.00000        25     s41378n82508w         0         0         0         2           sdc        42           tot       1.00000           aqu        78           rhg       1.00000  
      26  aqu132                 132     525.80000      41.32421     -82.53911     195.35917        26     s41378n82508w         0         0         0         2           aqu        25           tot       1.00000           aqu        78           rhg       1.00000  
      27  aqu141                 141      37.82000      41.32522     -82.52223     196.00000        27     s41378n82508w         0         0         0         2           sdc        42           tot       1.00000           aqu        78           rhg       1.00000  
      28  aqu142                 142     312.28000      41.32522     -82.52223     198.34924        28     s41378n82508w         0         0         0         2           aqu        27           tot       1.00000           aqu        78           rhg       1.00000  
      29  aqu151                 151       9.64000      41.32522     -82.50973     200.00000        29     s41378n82508w         0         0         0         2           sdc        47           tot       1.00000           aqu        78           rhg       1.00000  
      30  aqu152                 152     180.67000      41.32522     -82.50973     205.95124        30     s41378n82508w         0         0         0         2           aqu        29           tot       1.00000           aqu        78           rhg       1.00000  
      31  aqu161                 161      33.13000      41.32689     -82.49776     218.50000        31     s41378n82508w         0         0         0         2           sdc        47           tot       1.00000           aqu        78           rhg       1.00000  
      32  aqu162                 162     145.43000      41.32689     -82.49776     222.59802        32     s41378n82508w         0         0         0         2           aqu        31           tot       1.00000           aqu        78           rhg       1.00000  
      33  aqu171                 171       9.24000      41.31963     -82.46931     238.00999        33     s41378n82508w         0         0         0         2           sdc       103           tot       1.00000           aqu        78           rhg       1.00000  
      34  aqu172                 172     294.41000      41.31963     -82.46931     240.85568        34     s41378n82508w         0         0         0         2           aqu        33           tot       1.00000           aqu        78           rhg       1.00000  
      35  aqu181                 181      19.84000      41.32063     -82.48788     234.00000        35     s41378n82508w         0         0         0         2           sdc        99           tot       1.00000           aqu        78           rhg       1.00000  
      36  aqu182                 182      99.76000      41.32063     -82.48788     238.29711        36     s41378n82508w         0         0         0         2           aqu        35           tot       1.00000           aqu        78           rhg       1.00000  
      37  aqu191                 191      12.20000      41.31908     -82.49622     225.45000        37     s41378n82508w         0         0         0         2           sdc        98           tot       1.00000           aqu        78           rhg       1.00000  
      38  aqu192                 192      12.94000      41.31908     -82.49622     236.05719        38     s41378n82508w         0         0         0         2           aqu        37           tot       1.00000           aqu        78           rhg       1.00000  
      39  aqu201                 201      18.04000      41.31438     -82.48069     239.97000        39     s41378n82508w         0         0         0         2           sdc       103           tot       1.00000           aqu        78           rhg       1.00000  
      40  aqu202                 202      61.35000      41.31438     -82.48069     241.50367        40     s41378n82508w         0         0         0         2           aqu        39           tot       1.00000           aqu        78           rhg       1.00000  
      41  aqu211                 211       8.13000      41.30993     -82.50972     229.97000        41     s41378n82508w         0         0         0         2           sdc        94           tot       1.00000           aqu        78           rhg       1.00000  
      42  aqu212                 212     178.70000      41.30993     -82.50972     228.28243        42     s41378n82508w         0         0         0         2           aqu        41           tot       1.00000           aqu        78           rhg       1.00000  
      43  aqu221                 221       5.88000      41.31461     -82.52495     202.00000        43     s41378n82508w         0         0         0         2           sdc        94           tot       1.00000           aqu        78           rhg       1.00000  
      44  aqu222                 222      39.97000      41.31461     -82.52495     204.92144        44     s41378n82508w         0         0         0         2           aqu        43           tot       1.00000           aqu        78           rhg       1.00000  
      45  aqu231                 231       3.77000      41.30912     -82.49226     240.97000        45     s41378n82508w         0         0         0         2           sdc        99           tot       1.00000           aqu        78           rhg       1.00000  
      46  aqu232                 232     157.57000      41.30912     -82.49226     242.79444        46     s41378n82508w         0         0         0         2           aqu        45           tot       1.00000           aqu        78           rhg       1.00000  
      47  aqu241                 241      27.47000      41.29818     -82.44724     256.00000        47     s41378n82508w         0         0         0         2           sdc       105           tot       1.00000           aqu        78           rhg       1.00000  
      48  aqu242                 242     482.28000      41.29818     -82.44724     254.76748        48     s41378n82508w         0         0         0         2           aqu        47           tot       1.00000           aqu        78           rhg       1.00000  
      49  aqu251                 251       6.54000      41.30193     -82.52701     223.00000        49     s41378n82508w         0         0         0         2           sdc       174           tot       1.00000           aqu        78           rhg       1.00000  
      50  aqu252                 252     135.49000      41.30193     -82.52701     223.04067        50     s41378n82508w         0         0         0         2           aqu        49           tot       1.00000           aqu        78           rhg       1.00000  
      51  aqu261                 261      27.11000      41.30285     -82.51579     233.05000        51     s41378n82508w         0         0         0         2           sdc       174           tot       1.00000           aqu        78           rhg       1.00000  
      52  aqu262                 262     233.83000      41.30285     -82.51579     232.02994        52     s41378n82508w         0         0         0         2           aqu        51           tot       1.00000           aqu        78           rhg       1.00000  
      53  aqu271                 271      57.64000      41.27325     -82.46342     266.00000        53     s41378n82508w         0         0         0         2           sdc       182           tot       1.00000           aqu        78           rhg       1.00000  
      54  aqu272                 272     852.95000      41.27325     -82.46342     263.87118        54     s41378n82508w         0         0         0         2           aqu        53           tot       1.00000           aqu        78           rhg       1.00000  
      55  aqu281                 281       0.10000      41.30894     -82.47825     238.28000        55     s41378n82508w         0         0         0         2           sdc       105           tot       1.00000           aqu        78           rhg       1.00000  
      56  aqu291                 291       6.02000      41.30330     -82.47786     245.00000        56     s41378n82508w         0         0         0         2           sdc       182           tot       1.00000           aqu        78           rhg       1.00000  
      57  aqu292                 292      91.39000      41.30330     -82.47786     247.46252        57     s41378n82508w         0         0         0         2           aqu        56           tot       1.00000           aqu        78           rhg       1.00000  
      58  aqu301                 301       4.91000      41.28853     -82.48918     251.00000        58     s41378n82508w         0         0         0         2           sdc       181           tot       1.00000           aqu        78           rhg       1.00000  
      59  aqu302                 302     154.29000      41.28853     -82.48918     252.93551        59     s41378n82508w         0         0         0         2           aqu        58           tot       1.00000           aqu        78           rhg       1.00000  
      60  aqu311                 311      12.65000      41.28483     -82.48208     256.00000        60     s41378n82508w         0         0         0         2           sdc       189           tot       1.00000           aqu        78           rhg       1.00000  
      61  aqu312                 312     213.76000      41.28483     -82.48208     256.04070        61     s41378n82508w         0         0         0         2           aqu        60           tot       1.00000           aqu        78           rhg       1.00000  
      62  aqu321                 321       0.24000      41.30121     -82.48081     244.00000        62     s41378n82508w         0         0         0         2           sdc       189           tot       1.00000           aqu        78           rhg       1.00000  
      63  aqu322                 322       0.05000      41.30121     -82.48081     244.60000        63     s41378n82508w         0         0         0         2           aqu        62           tot       1.00000           aqu        78           rhg       1.00000  
      64  aqu331                 331       7.54000      41.29218     -82.46725     258.00000        64     s41378n82508w         0         0         0         2           sdc       190           tot       1.00000           aqu        78           rhg       1.00000  
      65  aqu332                 332     164.95000      41.29218     -82.46725     255.52404        65     s41378n82508w         0         0         0         2           aqu        64           tot       1.00000           aqu        78           rhg       1.00000  
      66  aqu341                 341       9.46000      41.28527     -82.47429     256.57001        66     s41378n82508w         0         0         0         2           sdc       190           tot       1.00000           aqu        78           rhg       1.00000  
      67  aqu342                 342     231.99000      41.28527     -82.47429     257.81491        67     s41378n82508w         0         0         0         2           aqu        66           tot       1.00000           aqu        78           rhg       1.00000  
      68  aqu351                 351       3.91000      41.29715     -82.50378     240.14000        68     s41378n82508w         0         0         0         2           sdc       180           tot       1.00000           aqu        78           rhg       1.00000  
      69  aqu352                 352      23.56000      41.29715     -82.50378     242.62521        69     s41378n82508w         0         0         0         2           aqu        68           tot       1.00000           aqu        78           rhg       1.00000  
      70  aqu361                 361      17.03000      41.28675     -82.50779     247.00000        70     s41378n82508w         0         0         0         2           sdc       180           tot       1.00000           aqu        78           rhg       1.00000  
      71  aqu362                 362     242.06000      41.28675     -82.50779     247.18186        71     s41378n82508w         0         0         0         2           aqu        70           tot       1.00000           aqu        78           rhg       1.00000  
      72  aqu371                 371       3.91000      41.28540     -82.49564     250.00000        72     s41378n82508w         0         0         0         2           sdc       181           tot       1.00000           aqu        78           rhg       1.00000  
      73  aqu372                 372     140.55000      41.28540     -82.49564     251.03835        73     s41378n82508w         0         0         0         2           aqu        72           tot       1.00000           aqu        78           rhg       1.00000  
      74  aqu381                 381       4.14000      41.27022     -82.50219     258.00000        74     s41378n82508w         0         0         0         2           sdc       290           tot       1.00000           aqu        78           rhg       1.00000  
      75  aqu382                 382     123.17000      41.27022     -82.50219     257.74174        75     s41378n82508w         0         0         0         2           aqu        74           tot       1.00000           aqu        78           rhg       1.00000  
      76  aqu391                 391       6.32000      41.27173     -82.49154     260.00000        76     s41378n82508w         0         0         0         2           sdc       290           tot       1.00000           aqu        78           rhg       1.00000  
      77  aqu392                 392     185.93000      41.27173     -82.49154     260.26026        77     s41378n82508w         0         0         0         2           aqu        76           tot       1.00000           aqu        78           rhg       1.00000  
      78  aqu_deep001              1    7141.91000      41.31080     -82.49375     229.15093        78     s41378n82508w         0         0         0         0  
