chandeg.con: written by SWAT+ editor v2.0.4 on 2021-10-21 11:48
      id  name                gis_id          area           lat           lon          elev      lcha               wst       cst      ovfl      rule   out_tot       obj_typ    obj_id       hyd_typ          frac  
       1  cha001                   1    7141.88960      41.38377     -82.51419             0         1     s41378n82508w         0         0         0         0  
       2  cha007                   7      35.98559      41.37422     -82.51688             0         2     s41378n82508w         0         0         0         1           res         2           tot       1.00000  
       3  cha008                   8      16.98000      41.37285     -82.51793             0         3     s41378n82508w         0         0         0         1           sdc         2           tot       1.00000  
       4  cha010                  10      79.92484      41.37610     -82.50733             0         4     s41378n82508w         0         0         0         1           res         2           tot       1.00000  
       5  cha012                  12      13.47000      41.37393     -82.51748             0         5     s41378n82508w         0         0         0         1           sdc         2           tot       1.00000  
       6  cha013                  13      16.93608      41.37324     -82.50715             0         6     s41378n82508w         0         0         0         1           res         1           tot       1.00000  
       7  cha014                  14      52.25000      41.37433     -82.50043             0         7     s41378n82508w         0         0         0         1           sdc         4           tot       1.00000  
       8  cha015                  15      23.41000      41.37650     -82.50433             0         8     s41378n82508w         0         0         0         1           sdc         4           tot       1.00000  
       9  cha016                  16    6905.68000      41.37262     -82.51323             0         9     s41378n82508w         0         0         0         3           res         3           tot       0.18000           res         1           tot       0.61000           res         2           tot       0.21000  
      10  cha017                  17    6894.02000      41.37187     -82.51380             0        10     s41378n82508w         0         0         0         1           sdc         9           tot       1.00000  
      11  cha018                  18    6879.11040      41.37050     -82.51407             0        11     s41378n82508w         0         0         0         1           sdc        10           tot       1.00000  
      12  cha019                  19    6795.56960      41.36891     -82.51273             0        12     s41378n82508w         0         0         0         1           sdc        11           tot       1.00000  
      13  cha020                  20    6676.65000      41.36774     -82.50936             0        13     s41378n82508w         0         0         0         1           sdc        12           tot       1.00000  
      14  cha021                  21    6657.28000      41.36693     -82.50684             0        14     s41378n82508w         0         0         0         1           sdc        13           tot       1.00000  
      15  cha022                  22    6584.62000      41.36581     -82.50560             0        15     s41378n82508w         0         0         0         1           sdc        14           tot       1.00000  
      16  cha023                  23    6579.31000      41.36485     -82.50469             0        16     s41378n82508w         0         0         0         1           sdc        15           tot       1.00000  
      17  cha024                  24    6018.01000      41.36155     -82.50630             0        17     s41378n82508w         0         0         0         1           sdc        16           tot       1.00000  
      18  cha025                  25    5972.78000      41.35432     -82.50958             0        18     s41378n82508w         0         0         0         1           sdc        17           tot       1.00000  
      19  cha026                  26     553.22000      41.36358     -82.50207             0        19     s41378n82508w         0         0         0         1           sdc        16           tot       1.00000  
      20  cha027                  27     497.55000      41.36128     -82.49948             0        20     s41378n82508w         0         0         0         1           sdc        19           tot       1.00000  
      21  cha028                  28     464.69000      41.35556     -82.50003             0        21     s41378n82508w         0         0         0         1           sdc        20           tot       1.00000  
      22  cha029                  29     114.21000      41.36467     -82.51361             0        22     s41378n82508w         0         0         0         1           sdc        12           tot       1.00000  
      23  cha030                  30      47.03000      41.35777     -82.51749             0        23     s41378n82508w         0         0         0         1           sdc        22           tot       1.00000  
      24  cha031                  31      81.14000      41.36888     -82.51456             0        24     s41378n82508w         0         0         0         1           sdc        11           tot       1.00000  
      25  cha032                  32      68.87000      41.36660     -82.50587             0        25     s41378n82508w         0         0         0         1           sdc        14           tot       1.00000  
      26  cha033                  33      63.92000      41.36604     -82.51931             0        26     s41378n82508w         0         0         0         1           sdc        24           tot       1.00000  
      27  cha034                  34      24.58000      41.36007     -82.51833             0        27     s41378n82508w         0         0         0         1           sdc        22           tot       1.00000  
      28  cha035                  35      27.12000      41.35864     -82.49883             0        28     s41378n82508w         0         0         0         1           sdc        20           tot       1.00000  
      29  cha036                  36      11.63000      41.35839     -82.50794             0        29     s41378n82508w         0         0         0         1           sdc        17           tot       1.00000  
      30  cha037                  37      38.67000      41.36049     -82.49677             0        30     s41378n82508w         0         0         0         1           sdc        19           tot       1.00000  
      31  cha038                  38      13.44000      41.36347     -82.52357             0        31     s41378n82508w         0         0         0         1           sdc        26           tot       1.00000  
      32  cha039                  39      10.32000      41.36369     -82.52310             0        32     s41378n82508w         0         0         0         1           sdc        26           tot       1.00000  
      33  cha040                  40      13.87000      41.36768     -82.51558             0        33     s41378n82508w         0         0         0         1           sdc        24           tot       1.00000  
      34  cha041                  41      11.13000      41.36717     -82.50442             0        34     s41378n82508w         0         0         0         1           sdc        25           tot       1.00000  
      35  cha042                  42      10.54000      41.37122     -82.51454             0        35     s41378n82508w         0         0         0         1           sdc        10           tot       1.00000  
      36  cha043                  43      53.08000      41.36799     -82.50104             0        36     s41378n82508w         0         0         0         1           sdc        25           tot       1.00000  
      37  cha044                  44      10.54000      41.37210     -82.51303             0        37     s41378n82508w         0         0         0         1           sdc         9           tot       1.00000  
      38  cha045                  45    5896.13000      41.34950     -82.51184             0        38     s41378n82508w         0         0         0         1           sdc        18           tot       1.00000  
      39  cha046                  46    5880.35000      41.34812     -82.51236             0        39     s41378n82508w         0         0         0         1           sdc        38           tot       1.00000  
      40  cha047                  47    2516.71000      41.34628     -82.51417             0        40     s41378n82508w         0         0         0         1           sdc        39           tot       1.00000  
      41  cha048                  48    2479.27000      41.34429     -82.51796             0        41     s41378n82508w         0         0         0         1           sdc        40           tot       1.00000  
      42  cha049                  49    2451.75000      41.34299     -82.52058             0        42     s41378n82508w         0         0         0         1           sdc        41           tot       1.00000  
      43  cha050                  50    1895.53000      41.34155     -82.52110             0        43     s41378n82508w         0         0         0         1           sdc        42           tot       1.00000  
      44  cha051                  51    1877.94000      41.33837     -82.52171             0        44     s41378n82508w         0         0         0         1           sdc        43           tot       1.00000  
      45  cha052                  52    3357.26000      41.34476     -82.51264             0        45     s41378n82508w         0         0         0         1           sdc        39           tot       1.00000  
      46  cha053                  53    3248.96000      41.34200     -82.51299             0        46     s41378n82508w         0         0         0         1           sdc        45           tot       1.00000  
      47  cha054                  54    3225.79000      41.34025     -82.51223             0        47     s41378n82508w         0         0         0         1           sdc        46           tot       1.00000  
      48  cha055                  55    3026.17000      41.33613     -82.50950             0        48     s41378n82508w         0         0         0         1           sdc        47           tot       1.00000  
      49  cha056                  56     199.39000      41.35024     -82.49960             0        49     s41378n82508w         0         0         0         1           sdc        21           tot       1.00000  
      50  cha057                  57     185.33000      41.34845     -82.49599             0        50     s41378n82508w         0         0         0         1           sdc        49           tot       1.00000  
      51  cha058                  58     143.88000      41.34668     -82.49329             0        51     s41378n82508w         0         0         0         1           sdc        50           tot       1.00000  
      52  cha059                  59     102.81000      41.34273     -82.49180             0        52     s41378n82508w         0         0         0         1           sdc        51           tot       1.00000  
      53  cha060                  60     551.41000      41.34164     -82.52364             0        53     s41378n82508w         0         0         0         1           sdc        42           tot       1.00000  
      54  cha061                  61     519.22000      41.33970     -82.52748             0        54     s41378n82508w         0         0         0         1           sdc        53           tot       1.00000  
      55  cha062                  62     417.65000      41.33580     -82.53109             0        55     s41378n82508w         0         0         0         1           sdc        54           tot       1.00000  
      56  cha063                  63      61.64000      41.33726     -82.48361             0        56     s41378n82508w         0         0         0         1           sdc        52           tot       1.00000  
      57  cha064                  64     208.45000      41.34912     -82.50140             0        57     s41378n82508w         0         0         0         1           sdc        21           tot       1.00000  
      58  cha065                  65     133.46000      41.34557     -82.50074             0        58     s41378n82508w         0         0         0         1           sdc        57           tot       1.00000  
      59  cha066                  66      91.19000      41.34358     -82.49936             0        59     s41378n82508w         0         0         0         1           sdc        58           tot       1.00000  
      60  cha067                  67      66.32000      41.34271     -82.49965             0        60     s41378n82508w         0         0         0         1           sdc        59           tot       1.00000  
      61  cha068                  68      85.58000      41.34038     -82.51007             0        61     s41378n82508w         0         0         0         1           sdc        45           tot       1.00000  
      62  cha069                  69      91.25000      41.33824     -82.53031             0        62     s41378n82508w         0         0         0         1           sdc        54           tot       1.00000  
      63  cha070                  70     190.31000      41.33712     -82.51167             0        63     s41378n82508w         0         0         0         1           sdc        47           tot       1.00000  
      64  cha071                  71     157.27000      41.33369     -82.51374             0        64     s41378n82508w         0         0         0         1           sdc        63           tot       1.00000  
      65  cha072                  72      34.97000      41.33611     -82.53535             0        65     s41378n82508w         0         0         0         1           sdc        62           tot       1.00000  
      66  cha073                  73      34.15000      41.33540     -82.50392             0        66     s41378n82508w         0         0         0         1           sdc        61           tot       1.00000  
      67  cha074                  74      20.38000      41.33373     -82.51202             0        67     s41378n82508w         0         0         0         1           sdc        63           tot       1.00000  
      68  cha075                  75      47.49000      41.33754     -82.49688             0        68     s41378n82508w         0         0         0         1           sdc        60           tot       1.00000  
      69  cha076                  76      38.26000      41.34576     -82.49310             0        69     s41378n82508w         0         0         0         1           sdc        51           tot       1.00000  
      70  cha077                  77      48.60000      41.34673     -82.50313             0        70     s41378n82508w         0         0         0         1           sdc        57           tot       1.00000  
      71  cha078                  78      53.54000      41.33886     -82.53403             0        71     s41378n82508w         0         0         0         1           sdc        62           tot       1.00000  
      72  cha079                  79      18.83000      41.33936     -82.53794             0        72     s41378n82508w         0         0         0         1           sdc        71           tot       1.00000  
      73  cha080                  80      38.10000      41.33720     -82.50430             0        73     s41378n82508w         0         0         0         1           sdc        61           tot       1.00000  
      74  cha081                  81      22.88000      41.34005     -82.51421             0        74     s41378n82508w         0         0         0         1           sdc        46           tot       1.00000  
      75  cha082                  82      29.33000      41.33732     -82.48719             0        75     s41378n82508w         0         0         0         1           sdc        52           tot       1.00000  
      76  cha083                  83      12.09000      41.33985     -82.52033             0        76     s41378n82508w         0         0         0         1           sdc        43           tot       1.00000  
      77  cha084                  84      17.78000      41.34051     -82.53772             0        77     s41378n82508w         0         0         0         1           sdc        71           tot       1.00000  
      78  cha085                  85      23.75000      41.33979     -82.49596             0        78     s41378n82508w         0         0         0         1           sdc        59           tot       1.00000  
      79  cha086                  86      14.41000      41.34125     -82.52724             0        79     s41378n82508w         0         0         0         1           sdc        53           tot       1.00000  
      80  cha087                  87      16.99000      41.34080     -82.49868             0        80     s41378n82508w         0         0         0         1           sdc        60           tot       1.00000  
      81  cha088                  88      17.82000      41.34433     -82.51710             0        81     s41378n82508w         0         0         0         1           sdc        40           tot       1.00000  
      82  cha089                  89      23.60000      41.34401     -82.52300             0        82     s41378n82508w         0         0         0         1           sdc        41           tot       1.00000  
      83  cha090                  90      22.31000      41.34355     -82.48976             0        83     s41378n82508w         0         0         0         1           sdc        69           tot       1.00000  
      84  cha091                  91      30.42000      41.34338     -82.49788             0        84     s41378n82508w         0         0         0         1           sdc        58           tot       1.00000  
      85  cha092                  92      32.79000      41.34513     -82.50545             0        85     s41378n82508w         0         0         0         1           sdc        70           tot       1.00000  
      86  cha093                  93      12.65000      41.34561     -82.50402             0        86     s41378n82508w         0         0         0         1           sdc        70           tot       1.00000  
      87  cha094                  94      14.23000      41.34550     -82.49279             0        87     s41378n82508w         0         0         0         1           sdc        69           tot       1.00000  
      88  cha095                  95      22.94000      41.34930     -82.50988             0        88     s41378n82508w         0         0         0         1           sdc        18           tot       1.00000  
      89  cha096                  96      20.26000      41.34715     -82.49216             0        89     s41378n82508w         0         0         0         1           sdc        50           tot       1.00000  
      90  cha097                  97      11.29000      41.34899     -82.49801             0        90     s41378n82508w         0         0         0         1           sdc        49           tot       1.00000  
      91  cha098                  98    1845.51000      41.33594     -82.52267             0        91     s41378n82508w         0         0         0         1           sdc        44           tot       1.00000  
      92  cha099                  99    1743.21000      41.33041     -82.52543             0        92     s41378n82508w         0         0         0         1           sdc        91           tot       1.00000  
      93  cha100                 100    1603.32000      41.32367     -82.52862             0        93     s41378n82508w         0         0         0         1           sdc        92           tot       1.00000  
      94  cha101                 101    1556.19000      41.32127     -82.52816             0        94     s41378n82508w         0         0         0         1           sdc        93           tot       1.00000  
      95  cha102                 102    1358.60000      41.31893     -82.52691             0        95     s41378n82508w         0         0         0         1           sdc        94           tot       1.00000  
      96  cha103                 103    3008.87000      41.33070     -82.50598             0        96     s41378n82508w         0         0         0         1           sdc        48           tot       1.00000  
      97  cha104                 104    2888.81000      41.32705     -82.50395             0        97     s41378n82508w         0         0         0         1           sdc        96           tot       1.00000  
      98  cha105                 105    2869.71000      41.32413     -82.50019             0        98     s41378n82508w         0         0         0         1           sdc        97           tot       1.00000  
      99  cha106                 106    2847.37000      41.31882     -82.49653             0        99     s41378n82508w         0         0         0         1           sdc        98           tot       1.00000  
     100  cha107                 107    2661.13000      41.31736     -82.49383             0       100     s41378n82508w         0         0         0         1           sdc        99           tot       1.00000  
     101  cha108                 108    2623.96000      41.31979     -82.49033             0       101     s41378n82508w         0         0         0         1           sdc       100           tot       1.00000  
     102  cha109                 109    2593.29000      41.32134     -82.48790             0       102     s41378n82508w         0         0         0         1           sdc       101           tot       1.00000  
     103  cha110                 110    2550.22000      41.32144     -82.48502             0       103     s41378n82508w         0         0         0         1           sdc       102           tot       1.00000  
     104  cha111                 111    2237.88000      41.32036     -82.48298             0       104     s41378n82508w         0         0         0         1           sdc       103           tot       1.00000  
     105  cha112                 112    2217.19000      41.31451     -82.48052             0       105     s41378n82508w         0         0         0         1           sdc       104           tot       1.00000  
     106  cha113                 113     371.77000      41.33226     -82.53432             0       106     s41378n82508w         0         0         0         1           sdc        55           tot       1.00000  
     107  cha114                 114      93.80000      41.33106     -82.52087             0       107     s41378n82508w         0         0         0         1           sdc        91           tot       1.00000  
     108  cha115                 115     344.56000      41.32852     -82.53693             0       108     s41378n82508w         0         0         0         1           sdc       106           tot       1.00000  
     109  cha116                 116     278.33000      41.32537     -82.53911             0       109     s41378n82508w         0         0         0         1           sdc       108           tot       1.00000  
     110  cha117                 117     235.90000      41.32393     -82.54000             0       110     s41378n82508w         0         0         0         1           sdc       109           tot       1.00000  
     111  cha118                 118      56.11000      41.32194     -82.53916             0       111     s41378n82508w         0         0         0         1           sdc       110           tot       1.00000  
     112  cha119                 119      32.18000      41.31784     -82.53794             0       112     s41378n82508w         0         0         0         1           sdc       111           tot       1.00000  
     113  cha120                 120      44.91000      41.32079     -82.51385             0       113     s41378n82508w         0         0         0         1           sdc       107           tot       1.00000  
     114  cha121                 121      33.02000      41.32040     -82.53180             0       114     s41378n82508w         0         0         0         1           sdc        93           tot       1.00000  
     115  cha122                 122     186.83000      41.31729     -82.52291             0       115     s41378n82508w         0         0         0         1           sdc        94           tot       1.00000  
     116  cha123                 123     172.78000      41.32130     -82.54208             0       116     s41378n82508w         0         0         0         1           sdc       110           tot       1.00000  
     117  cha124                 124     161.34000      41.31452     -82.49596             0       117     s41378n82508w         0         0         0         1           sdc        99           tot       1.00000  
     118  cha125                 125     303.65000      41.32180     -82.48124             0       118     s41378n82508w         0         0         0         1           sdc       103           tot       1.00000  
     119  cha126                 126     252.29000      41.32260     -82.47683             0       119     s41378n82508w         0         0         0         1           sdc       118           tot       1.00000  
     120  cha127                 127     211.81000      41.32213     -82.47333             0       120     s41378n82508w         0         0         0         1           sdc       119           tot       1.00000  
     121  cha128                 128     157.06000      41.32157     -82.47186             0       121     s41378n82508w         0         0         0         1           sdc       120           tot       1.00000  
     122  cha129                 129     130.83000      41.32908     -82.51493             0       122     s41378n82508w         0         0         0         1           sdc        64           tot       1.00000  
     123  cha130                 130     106.59000      41.31985     -82.46922             0       123     s41378n82508w         0         0         0         1           sdc       121           tot       1.00000  
     124  cha131                 131      77.28000      41.31839     -82.46652             0       124     s41378n82508w         0         0         0         1           sdc       123           tot       1.00000  
     125  cha132                 132      59.58000      41.31794     -82.46575             0       125     s41378n82508w         0         0         0         1           sdc       124           tot       1.00000  
     126  cha133                 133      41.79000      41.32520     -82.54097             0       126     s41378n82508w         0         0         0         1           sdc       109           tot       1.00000  
     127  cha134                 134      50.39000      41.31986     -82.47231             0       127     s41378n82508w         0         0         0         1           sdc       121           tot       1.00000  
     128  cha135                 135      93.37000      41.32463     -82.52618             0       128     s41378n82508w         0         0         0         1           sdc        92           tot       1.00000  
     129  cha136                 136      62.09000      41.32674     -82.51246             0       129     s41378n82508w         0         0         0         1           sdc       122           tot       1.00000  
     130  cha137                 137      94.62000      41.32821     -82.49910             0       130     s41378n82508w         0         0         0         1           sdc        96           tot       1.00000  
     131  cha138                 138      46.43000      41.31708     -82.46355             0       131     s41378n82508w         0         0         0         1           sdc       125           tot       1.00000  
     132  cha139                 139      51.12000      41.32402     -82.52381             0       132     s41378n82508w         0         0         0         1           sdc       128           tot       1.00000  
     133  cha140                 140      49.84000      41.32368     -82.51256             0       133     s41378n82508w         0         0         0         1           sdc       122           tot       1.00000  
     134  cha141                 141      45.06000      41.32191     -82.47161             0       134     s41378n82508w         0         0         0         1           sdc       120           tot       1.00000  
     135  cha142                 142      30.90000      41.32209     -82.47042             0       135     s41378n82508w         0         0         0         1           sdc       134           tot       1.00000  
     136  cha143                 143      24.15000      41.32712     -82.50971             0       136     s41378n82508w         0         0         0         1           sdc       129           tot       1.00000  
     137  cha144                 144      16.21000      41.32081     -82.53908             0       137     s41378n82508w         0         0         0         1           sdc       111           tot       1.00000  