exco.exc: written by SWAT+ editor v2.0.4 on 2022-01-21 12:23
name                            om              pest              path              hmet              salt  
pt013                        pt013              null              null              null              null  
pt024                        pt024              null              null              null              null  
pt026                        pt026              null              null              null              null  
pt029                        pt029              null              null              null              null  
pt033                        pt033              null              null              null              null  
pt034                        pt034              null              null              null              null  
pt036                        pt036              null              null              null              null  
pt038                        pt038              null              null              null              null  
pt039                        pt039              null              null              null              null  
pt041                        pt041              null              null              null              null  
pt043                        pt043              null              null              null              null  
pt045                        pt045              null              null              null              null  
pt047                        pt047              null              null              null              null  
pt048                        pt048              null              null              null              null  
pt050                        pt050              null              null              null              null  
pt051                        pt051              null              null              null              null  
pt053                        pt053              null              null              null              null  
pt055                        pt055              null              null              null              null  
pt057                        pt057              null              null              null              null  
pt059                        pt059              null              null              null              null  
pt061                        pt061              null              null              null              null  
pt063                        pt063              null              null              null              null  
pt065                        pt065              null              null              null              null  
pt067                        pt067              null              null              null              null  
pt069                        pt069              null              null              null              null  
pt071                        pt071              null              null              null              null  
pt073                        pt073              null              null              null              null  
pt075                        pt075              null              null              null              null  
pt077                        pt077              null              null              null              null  
pt079                        pt079              null              null              null              null  
pt081                        pt081              null              null              null              null  
pt083                        pt083              null              null              null              null  
pt085                        pt085              null              null              null              null  
pt087                        pt087              null              null              null              null  
pt089                        pt089              null              null              null              null  
pt091                        pt091              null              null              null              null  
pt093                        pt093              null              null              null              null  
pt095                        pt095              null              null              null              null  
pt096                        pt096              null              null              null              null  
pt098                        pt098              null              null              null              null  
pt100                        pt100              null              null              null              null  
pt102                        pt102              null              null              null              null  
pt104                        pt104              null              null              null              null  
pt106                        pt106              null              null              null              null  
pt108                        pt108              null              null              null              null  
pt110                        pt110              null              null              null              null  
pt112                        pt112              null              null              null              null  
pt114                        pt114              null              null              null              null  
pt116                        pt116              null              null              null              null  
pt118                        pt118              null              null              null              null  
pt120                        pt120              null              null              null              null  
pt122                        pt122              null              null              null              null  
pt124                        pt124              null              null              null              null  
pt126                        pt126              null              null              null              null  
pt128                        pt128              null              null              null              null  
pt130                        pt130              null              null              null              null  
pt132                        pt132              null              null              null              null  
pt134                        pt134              null              null              null              null  
pt136                        pt136              null              null              null              null  
pt138                        pt138              null              null              null              null  
pt140                        pt140              null              null              null              null  
pt142                        pt142              null              null              null              null  
pt144                        pt144              null              null              null              null  
pt146                        pt146              null              null              null              null  
pt148                        pt148              null              null              null              null  
pt150                        pt150              null              null              null              null  
pt152                        pt152              null              null              null              null  
pt154                        pt154              null              null              null              null  
pt156                        pt156              null              null              null              null  
pt158                        pt158              null              null              null              null  
pt160                        pt160              null              null              null              null  
pt162                        pt162              null              null              null              null  
pt164                        pt164              null              null              null              null  
pt166                        pt166              null              null              null              null  
pt168                        pt168              null              null              null              null  
pt170                        pt170              null              null              null              null  
pt172                        pt172              null              null              null              null  
pt174                        pt174              null              null              null              null  
pt176                        pt176              null              null              null              null  
pt178                        pt178              null              null              null              null  
pt180                        pt180              null              null              null              null  
pt182                        pt182              null              null              null              null  
pt184                        pt184              null              null              null              null  
pt186                        pt186              null              null              null              null  
pt188                        pt188              null              null              null              null  
pt190                        pt190              null              null              null              null  
pt192                        pt192              null              null              null              null  
pt194                        pt194              null              null              null              null  
pt196                        pt196              null              null              null              null  
pt198                        pt198              null              null              null              null  
pt200                        pt200              null              null              null              null  
pt202                        pt202              null              null              null              null  
pt204                        pt204              null              null              null              null  
pt206                        pt206              null              null              null              null  
pt208                        pt208              null              null              null              null  
pt210                        pt210              null              null              null              null  
pt212                        pt212              null              null              null              null  
pt214                        pt214              null              null              null              null  
pt215                        pt215              null              null              null              null  
pt217                        pt217              null              null              null              null  
pt219                        pt219              null              null              null              null  
pt221                        pt221              null              null              null              null  
pt223                        pt223              null              null              null              null  
pt225                        pt225              null              null              null              null  
pt227                        pt227              null              null              null              null  
pt229                        pt229              null              null              null              null  
pt231                        pt231              null              null              null              null  
pt233                        pt233              null              null              null              null  
pt235                        pt235              null              null              null              null  
pt237                        pt237              null              null              null              null  
pt239                        pt239              null              null              null              null  
pt241                        pt241              null              null              null              null  
pt243                        pt243              null              null              null              null  
pt245                        pt245              null              null              null              null  
pt247                        pt247              null              null              null              null  
pt249                        pt249              null              null              null              null  
pt251                        pt251              null              null              null              null  
pt253                        pt253              null              null              null              null  
pt255                        pt255              null              null              null              null  
pt257                        pt257              null              null              null              null  
pt259                        pt259              null              null              null              null  
pt261                        pt261              null              null              null              null  
pt263                        pt263              null              null              null              null  
pt265                        pt265              null              null              null              null  
pt267                        pt267              null              null              null              null  
pt269                        pt269              null              null              null              null  
pt271                        pt271              null              null              null              null  
pt273                        pt273              null              null              null              null  
pt275                        pt275              null              null              null              null  
pt277                        pt277              null              null              null              null  
pt279                        pt279              null              null              null              null  
pt281                        pt281              null              null              null              null  
pt283                        pt283              null              null              null              null  
pt285                        pt285              null              null              null              null  
pt287                        pt287              null              null              null              null  
pt289                        pt289              null              null              null              null  
pt291                        pt291              null              null              null              null  
pt293                        pt293              null              null              null              null  
pt295                        pt295              null              null              null              null  
pt297                        pt297              null              null              null              null  
pt299                        pt299              null              null              null              null  
pt301                        pt301              null              null              null              null  
pt303                        pt303              null              null              null              null  
pt305                        pt305              null              null              null              null  
pt307                        pt307              null              null              null              null  
pt309                        pt309              null              null              null              null  
pt311                        pt311              null              null              null              null  
pt313                        pt313              null              null              null              null  
pt315                        pt315              null              null              null              null  
pt317                        pt317              null              null              null              null  
pt319                        pt319              null              null              null              null  
pt321                        pt321              null              null              null              null  
pt323                        pt323              null              null              null              null  
pt325                        pt325              null              null              null              null  
pt327                        pt327              null              null              null              null  
pt329                        pt329              null              null              null              null  
pt331                        pt331              null              null              null              null  
pt333                        pt333              null              null              null              null  
pt335                        pt335              null              null              null              null  
pt337                        pt337              null              null              null              null  
pt339                        pt339              null              null              null              null  
pt341                        pt341              null              null              null              null  
pt343                        pt343              null              null              null              null  
pt345                        pt345              null              null              null              null  
pt347                        pt347              null              null              null              null  
pt349                        pt349              null              null              null              null  
pt351                        pt351              null              null              null              null  
pt353                        pt353              null              null              null              null  
pt355                        pt355              null              null              null              null  
pt357                        pt357              null              null              null              null  
pt359                        pt359              null              null              null              null  
pt361                        pt361              null              null              null              null  
pt363                        pt363              null              null              null              null  
pt365                        pt365              null              null              null              null  
pt367                        pt367              null              null              null              null  
pt369                        pt369              null              null              null              null  
pt371                        pt371              null              null              null              null  
pt373                        pt373              null              null              null              null  
pt375                        pt375              null              null              null              null  
pt377                        pt377              null              null              null              null  
pt379                        pt379              null              null              null              null  
pt381                        pt381              null              null              null              null  
pt383                        pt383              null              null              null              null  
pt385                        pt385              null              null              null              null  
pt387                        pt387              null              null              null              null  
pt389                        pt389              null              null              null              null  
pt391                        pt391              null              null              null              null  
pt393                        pt393              null              null              null              null  
pt395                        pt395              null              null              null              null  
pt397                        pt397              null              null              null              null  
pt399                        pt399              null              null              null              null  
pt401                        pt401              null              null              null              null  
pt403                        pt403              null              null              null              null  
pt405                        pt405              null              null              null              null  
pt407                        pt407              null              null              null              null  
pt409                        pt409              null              null              null              null  
pt411                        pt411              null              null              null              null  
pt413                        pt413              null              null              null              null  
pt415                        pt415              null              null              null              null  
pt417                        pt417              null              null              null              null  
pt419                        pt419              null              null              null              null  
pt421                        pt421              null              null              null              null  
pt423                        pt423              null              null              null              null  
pt425                        pt425              null              null              null              null  
pt427                        pt427              null              null              null              null  
pt429                        pt429              null              null              null              null  
pt431                        pt431              null              null              null              null  
pt433                        pt433              null              null              null              null  
pt435                        pt435              null              null              null              null  
pt437                        pt437              null              null              null              null  
pt439                        pt439              null              null              null              null  
pt441                        pt441              null              null              null              null  
pt443                        pt443              null              null              null              null  
pt445                        pt445              null              null              null              null  
pt447                        pt447              null              null              null              null  
pt449                        pt449              null              null              null              null  
pt451                        pt451              null              null              null              null  
pt453                        pt453              null              null              null              null  
pt455                        pt455              null              null              null              null  
pt457                        pt457              null              null              null              null  
pt459                        pt459              null              null              null              null  
pt461                        pt461              null              null              null              null  
pt463                        pt463              null              null              null              null  
pt465                        pt465              null              null              null              null  
pt467                        pt467              null              null              null              null  
pt469                        pt469              null              null              null              null  
pt471                        pt471              null              null              null              null  
pt473                        pt473              null              null              null              null  
pt475                        pt475              null              null              null              null  
pt477                        pt477              null              null              null              null  
pt479                        pt479              null              null              null              null  
pt481                        pt481              null              null              null              null  
pt483                        pt483              null              null              null              null  
pt485                        pt485              null              null              null              null  
pt487                        pt487              null              null              null              null  
pt489                        pt489              null              null              null              null  
pt491                        pt491              null              null              null              null  
pt493                        pt493              null              null              null              null  
pt495                        pt495              null              null              null              null  
pt497                        pt497              null              null              null              null  
pt499                        pt499              null              null              null              null  
pt501                        pt501              null              null              null              null  
pt503                        pt503              null              null              null              null  
pt505                        pt505              null              null              null              null  
pt507                        pt507              null              null              null              null  
pt509                        pt509              null              null              null              null  
pt511                        pt511              null              null              null              null  
pt513                        pt513              null              null              null              null  
pt515                        pt515              null              null              null              null  
pt517                        pt517              null              null              null              null  
pt519                        pt519              null              null              null              null  
pt521                        pt521              null              null              null              null  
pt523                        pt523              null              null              null              null  
pt525                        pt525              null              null              null              null  
pt527                        pt527              null              null              null              null  
pt529                        pt529              null              null              null              null  
pt531                        pt531              null              null              null              null  
pt533                        pt533              null              null              null              null  
pt535                        pt535              null              null              null              null  
pt537                        pt537              null              null              null              null  
pt539                        pt539              null              null              null              null  
pt541                        pt541              null              null              null              null  
pt543                        pt543              null              null              null              null  
pt545                        pt545              null              null              null              null  
pt547                        pt547              null              null              null              null  
pt549                        pt549              null              null              null              null  
pt551                        pt551              null              null              null              null  
pt553                        pt553              null              null              null              null  
pt555                        pt555              null              null              null              null  
pt557                        pt557              null              null              null              null  
pt559                        pt559              null              null              null              null  