field.fld: written by SWAT+ editor v2.0.4 on 2022-01-21 12:23
name                       len            wd           ang  
fld0011              500.00000     100.00000      30.00000  
fld0021              500.00000     100.00000      30.00000  
fld0022              500.00000     100.00000      30.00000  
fld0031              500.00000     100.00000      30.00000  
fld0032              500.00000     100.00000      30.00000  
fld0041              500.00000     100.00000      30.00000  
fld0042              500.00000     100.00000      30.00000  
fld0051              500.00000     100.00000      30.00000  
fld0052              500.00000     100.00000      30.00000  
fld0061              500.00000     100.00000      30.00000  
fld0062              500.00000     100.00000      30.00000  
fld0071              500.00000     100.00000      30.00000  
fld0072              500.00000     100.00000      30.00000  
fld0081              500.00000     100.00000      30.00000  
fld0082              500.00000     100.00000      30.00000  
fld0091              500.00000     100.00000      30.00000  
fld0092              500.00000     100.00000      30.00000  
fld0101              500.00000     100.00000      30.00000  
fld0102              500.00000     100.00000      30.00000  
fld0111              500.00000     100.00000      30.00000  
fld0112              500.00000     100.00000      30.00000  
fld0121              500.00000     100.00000      30.00000  
fld0122              500.00000     100.00000      30.00000  
fld0131              500.00000     100.00000      30.00000  
fld0132              500.00000     100.00000      30.00000  
fld0141              500.00000     100.00000      30.00000  
fld0142              500.00000     100.00000      30.00000  
fld0151              500.00000     100.00000      30.00000  
fld0152              500.00000     100.00000      30.00000  
fld0161              500.00000     100.00000      30.00000  
fld0162              500.00000     100.00000      30.00000  
fld0171              500.00000     100.00000      30.00000  
fld0172              500.00000     100.00000      30.00000  
fld0181              500.00000     100.00000      30.00000  
fld0191              500.00000     100.00000      30.00000  
fld0201              500.00000     100.00000      30.00000  
fld0202              500.00000     100.00000      30.00000  
fld0211              500.00000     100.00000      30.00000  
fld0212              500.00000     100.00000      30.00000  
fld0221              500.00000     100.00000      30.00000  
fld0222              500.00000     100.00000      30.00000  
fld0231              500.00000     100.00000      30.00000  
fld0232              500.00000     100.00000      30.00000  
fld0241              500.00000     100.00000      30.00000  
fld0242              500.00000     100.00000      30.00000  
fld0251              500.00000     100.00000      30.00000  
fld0252              500.00000     100.00000      30.00000  
fld0261              500.00000     100.00000      30.00000  
fld0262              500.00000     100.00000      30.00000  
fld0271              500.00000     100.00000      30.00000  
fld0272              500.00000     100.00000      30.00000  
fld0281              500.00000     100.00000      30.00000  
fld0282              500.00000     100.00000      30.00000  
fld0291              500.00000     100.00000      30.00000  
fld0292              500.00000     100.00000      30.00000  
fld0301              500.00000     100.00000      30.00000  
fld0302              500.00000     100.00000      30.00000  
fld0311              500.00000     100.00000      30.00000  
fld0312              500.00000     100.00000      30.00000  
fld0321              500.00000     100.00000      30.00000  
fld0322              500.00000     100.00000      30.00000  
fld0331              500.00000     100.00000      30.00000  
fld0332              500.00000     100.00000      30.00000  
fld0341              500.00000     100.00000      30.00000  
fld0342              500.00000     100.00000      30.00000  
fld0351              500.00000     100.00000      30.00000  
fld0352              500.00000     100.00000      30.00000  
fld0361              500.00000     100.00000      30.00000  
fld0362              500.00000     100.00000      30.00000  
fld0371              500.00000     100.00000      30.00000  
fld0372              500.00000     100.00000      30.00000  
fld0381              500.00000     100.00000      30.00000  
fld0382              500.00000     100.00000      30.00000  
fld0391              500.00000     100.00000      30.00000  
fld0392              500.00000     100.00000      30.00000  
fld0401              500.00000     100.00000      30.00000  
fld0402              500.00000     100.00000      30.00000  
fld0411              500.00000     100.00000      30.00000  
fld0412              500.00000     100.00000      30.00000  
fld0421              500.00000     100.00000      30.00000  
fld0422              500.00000     100.00000      30.00000  
fld0431              500.00000     100.00000      30.00000  
fld0432              500.00000     100.00000      30.00000  
fld0441              500.00000     100.00000      30.00000  
fld0442              500.00000     100.00000      30.00000  
fld0451              500.00000     100.00000      30.00000  
fld0452              500.00000     100.00000      30.00000  
fld0461              500.00000     100.00000      30.00000  
fld0462              500.00000     100.00000      30.00000  
fld0471              500.00000     100.00000      30.00000  
fld0472              500.00000     100.00000      30.00000  
fld0481              500.00000     100.00000      30.00000  
fld0482              500.00000     100.00000      30.00000  
fld0491              500.00000     100.00000      30.00000  
fld0492              500.00000     100.00000      30.00000  
fld0501              500.00000     100.00000      30.00000  
fld0502              500.00000     100.00000      30.00000  
fld0511              500.00000     100.00000      30.00000  
fld0512              500.00000     100.00000      30.00000  
fld0521              500.00000     100.00000      30.00000  
fld0522              500.00000     100.00000      30.00000  
fld0531              500.00000     100.00000      30.00000  
fld0532              500.00000     100.00000      30.00000  
fld0541              500.00000     100.00000      30.00000  
fld0542              500.00000     100.00000      30.00000  
fld0551              500.00000     100.00000      30.00000  
fld0552              500.00000     100.00000      30.00000  
fld0561              500.00000     100.00000      30.00000  
fld0562              500.00000     100.00000      30.00000  
fld0571              500.00000     100.00000      30.00000  
fld0572              500.00000     100.00000      30.00000  
fld0581              500.00000     100.00000      30.00000  
fld0582              500.00000     100.00000      30.00000  
fld0591              500.00000     100.00000      30.00000  
fld0592              500.00000     100.00000      30.00000  
fld0601              500.00000     100.00000      30.00000  
fld0602              500.00000     100.00000      30.00000  
fld0611              500.00000     100.00000      30.00000  
fld0612              500.00000     100.00000      30.00000  
fld0621              500.00000     100.00000      30.00000  
fld0622              500.00000     100.00000      30.00000  
fld0631              500.00000     100.00000      30.00000  
fld0632              500.00000     100.00000      30.00000  
fld0641              500.00000     100.00000      30.00000  
fld0642              500.00000     100.00000      30.00000  
fld0651              500.00000     100.00000      30.00000  
fld0652              500.00000     100.00000      30.00000  
fld0661              500.00000     100.00000      30.00000  
fld0662              500.00000     100.00000      30.00000  
fld0671              500.00000     100.00000      30.00000  
fld0672              500.00000     100.00000      30.00000  
fld0681              500.00000     100.00000      30.00000  
fld0682              500.00000     100.00000      30.00000  
fld0691              500.00000     100.00000      30.00000  
fld0692              500.00000     100.00000      30.00000  
fld0701              500.00000     100.00000      30.00000  
fld0702              500.00000     100.00000      30.00000  
fld0711              500.00000     100.00000      30.00000  
fld0712              500.00000     100.00000      30.00000  
fld0721              500.00000     100.00000      30.00000  
fld0722              500.00000     100.00000      30.00000  
fld0731              500.00000     100.00000      30.00000  
fld0732              500.00000     100.00000      30.00000  
fld0741              500.00000     100.00000      30.00000  
fld0742              500.00000     100.00000      30.00000  
fld0751              500.00000     100.00000      30.00000  
fld0752              500.00000     100.00000      30.00000  
fld0761              500.00000     100.00000      30.00000  
fld0762              500.00000     100.00000      30.00000  
fld0771              500.00000     100.00000      30.00000  
fld0772              500.00000     100.00000      30.00000  
fld0781              500.00000     100.00000      30.00000  
fld0782              500.00000     100.00000      30.00000  
fld0791              500.00000     100.00000      30.00000  
fld0792              500.00000     100.00000      30.00000  
fld0801              500.00000     100.00000      30.00000  
fld0802              500.00000     100.00000      30.00000  
fld0811              500.00000     100.00000      30.00000  
fld0812              500.00000     100.00000      30.00000  
fld0821              500.00000     100.00000      30.00000  
fld0822              500.00000     100.00000      30.00000  
fld0831              500.00000     100.00000      30.00000  
fld0832              500.00000     100.00000      30.00000  
fld0841              500.00000     100.00000      30.00000  
fld0842              500.00000     100.00000      30.00000  
fld0851              500.00000     100.00000      30.00000  
fld0852              500.00000     100.00000      30.00000  
fld0861              500.00000     100.00000      30.00000  
fld0862              500.00000     100.00000      30.00000  
fld0871              500.00000     100.00000      30.00000  
fld0872              500.00000     100.00000      30.00000  
fld0881              500.00000     100.00000      30.00000  
fld0882              500.00000     100.00000      30.00000  
fld0891              500.00000     100.00000      30.00000  
fld0892              500.00000     100.00000      30.00000  
fld0901              500.00000     100.00000      30.00000  
fld0902              500.00000     100.00000      30.00000  
fld0911              500.00000     100.00000      30.00000  
fld0912              500.00000     100.00000      30.00000  
fld0921              500.00000     100.00000      30.00000  
fld0922              500.00000     100.00000      30.00000  
fld0931              500.00000     100.00000      30.00000  
fld0932              500.00000     100.00000      30.00000  
fld0941              500.00000     100.00000      30.00000  
fld0942              500.00000     100.00000      30.00000  
fld0951              500.00000     100.00000      30.00000  
fld0952              500.00000     100.00000      30.00000  
fld0961              500.00000     100.00000      30.00000  
fld0962              500.00000     100.00000      30.00000  
fld0971              500.00000     100.00000      30.00000  
fld0972              500.00000     100.00000      30.00000  
fld0981              500.00000     100.00000      30.00000  
fld0982              500.00000     100.00000      30.00000  
fld0991              500.00000     100.00000      30.00000  
fld0992              500.00000     100.00000      30.00000  
fld1001              500.00000     100.00000      30.00000  
fld1002              500.00000     100.00000      30.00000  
fld1011              500.00000     100.00000      30.00000  
fld1012              500.00000     100.00000      30.00000  
fld1021              500.00000     100.00000      30.00000  
fld1022              500.00000     100.00000      30.00000  
fld1031              500.00000     100.00000      30.00000  
fld1032              500.00000     100.00000      30.00000  
fld1041              500.00000     100.00000      30.00000  
fld1042              500.00000     100.00000      30.00000  
fld1051              500.00000     100.00000      30.00000  
fld1052              500.00000     100.00000      30.00000  
fld1061              500.00000     100.00000      30.00000  
fld1062              500.00000     100.00000      30.00000  
fld1071              500.00000     100.00000      30.00000  
fld1072              500.00000     100.00000      30.00000  
fld1081              500.00000     100.00000      30.00000  
fld1082              500.00000     100.00000      30.00000  
fld1091              500.00000     100.00000      30.00000  
fld1092              500.00000     100.00000      30.00000  
fld1101              500.00000     100.00000      30.00000  
fld1102              500.00000     100.00000      30.00000  
fld1111              500.00000     100.00000      30.00000  
fld1112              500.00000     100.00000      30.00000  
fld1121              500.00000     100.00000      30.00000  
fld1122              500.00000     100.00000      30.00000  
fld1131              500.00000     100.00000      30.00000  
fld1132              500.00000     100.00000      30.00000  
fld1141              500.00000     100.00000      30.00000  
fld1142              500.00000     100.00000      30.00000  
fld1151              500.00000     100.00000      30.00000  
fld1152              500.00000     100.00000      30.00000  
fld1161              500.00000     100.00000      30.00000  
fld1162              500.00000     100.00000      30.00000  
fld1171              500.00000     100.00000      30.00000  
fld1172              500.00000     100.00000      30.00000  
fld1181              500.00000     100.00000      30.00000  
fld1182              500.00000     100.00000      30.00000  
fld1191              500.00000     100.00000      30.00000  
fld1192              500.00000     100.00000      30.00000  
fld1201              500.00000     100.00000      30.00000  
fld1202              500.00000     100.00000      30.00000  
fld1211              500.00000     100.00000      30.00000  
fld1212              500.00000     100.00000      30.00000  
fld1221              500.00000     100.00000      30.00000  
fld1222              500.00000     100.00000      30.00000  
fld1231              500.00000     100.00000      30.00000  
fld1232              500.00000     100.00000      30.00000  
fld1241              500.00000     100.00000      30.00000  
fld1242              500.00000     100.00000      30.00000  
fld1251              500.00000     100.00000      30.00000  
fld1252              500.00000     100.00000      30.00000  
fld1261              500.00000     100.00000      30.00000  
fld1262              500.00000     100.00000      30.00000  
fld1271              500.00000     100.00000      30.00000  
fld1272              500.00000     100.00000      30.00000  
fld1281              500.00000     100.00000      30.00000  
fld1291              500.00000     100.00000      30.00000  
fld1292              500.00000     100.00000      30.00000  
fld1301              500.00000     100.00000      30.00000  
fld1302              500.00000     100.00000      30.00000  
fld1311              500.00000     100.00000      30.00000  
fld1312              500.00000     100.00000      30.00000  
fld1321              500.00000     100.00000      30.00000  
fld1322              500.00000     100.00000      30.00000  
fld1331              500.00000     100.00000      30.00000  
fld1332              500.00000     100.00000      30.00000  
fld1341              500.00000     100.00000      30.00000  
fld1342              500.00000     100.00000      30.00000  
fld1351              500.00000     100.00000      30.00000  
fld1352              500.00000     100.00000      30.00000  
fld1361              500.00000     100.00000      30.00000  
fld1362              500.00000     100.00000      30.00000  
fld1371              500.00000     100.00000      30.00000  
fld1372              500.00000     100.00000      30.00000  
fld1381              500.00000     100.00000      30.00000  
fld1382              500.00000     100.00000      30.00000  
fld1391              500.00000     100.00000      30.00000  
fld1392              500.00000     100.00000      30.00000  
fld1401              500.00000     100.00000      30.00000  
fld1402              500.00000     100.00000      30.00000  
fld1411              500.00000     100.00000      30.00000  
fld1412              500.00000     100.00000      30.00000  
fld1421              500.00000     100.00000      30.00000  
fld1422              500.00000     100.00000      30.00000  
fld1431              500.00000     100.00000      30.00000  
fld1432              500.00000     100.00000      30.00000  
fld1441              500.00000     100.00000      30.00000  
fld1442              500.00000     100.00000      30.00000  
fld1451              500.00000     100.00000      30.00000  
fld1452              500.00000     100.00000      30.00000  
fld1461              500.00000     100.00000      30.00000  
fld1462              500.00000     100.00000      30.00000  
fld1471              500.00000     100.00000      30.00000  
fld1472              500.00000     100.00000      30.00000  
fld1481              500.00000     100.00000      30.00000  
fld1482              500.00000     100.00000      30.00000  
fld1491              500.00000     100.00000      30.00000  
fld1492              500.00000     100.00000      30.00000  
fld1501              500.00000     100.00000      30.00000  
fld1502              500.00000     100.00000      30.00000  
fld1511              500.00000     100.00000      30.00000  
fld1512              500.00000     100.00000      30.00000  
fld1521              500.00000     100.00000      30.00000  
fld1522              500.00000     100.00000      30.00000  
fld1531              500.00000     100.00000      30.00000  
fld1532              500.00000     100.00000      30.00000  
fld1541              500.00000     100.00000      30.00000  
fld1542              500.00000     100.00000      30.00000  
fld1551              500.00000     100.00000      30.00000  
fld1552              500.00000     100.00000      30.00000  
fld1561              500.00000     100.00000      30.00000  
fld1562              500.00000     100.00000      30.00000  
fld1571              500.00000     100.00000      30.00000  
fld1572              500.00000     100.00000      30.00000  
fld1581              500.00000     100.00000      30.00000  
fld1582              500.00000     100.00000      30.00000  
fld1591              500.00000     100.00000      30.00000  
fld1592              500.00000     100.00000      30.00000  
fld1601              500.00000     100.00000      30.00000  
fld1602              500.00000     100.00000      30.00000  
fld1611              500.00000     100.00000      30.00000  
fld1612              500.00000     100.00000      30.00000  
fld1621              500.00000     100.00000      30.00000  
fld1622              500.00000     100.00000      30.00000  
fld1631              500.00000     100.00000      30.00000  
fld1632              500.00000     100.00000      30.00000  
fld1641              500.00000     100.00000      30.00000  
fld1642              500.00000     100.00000      30.00000  
fld1651              500.00000     100.00000      30.00000  
fld1652              500.00000     100.00000      30.00000  
fld1661              500.00000     100.00000      30.00000  
fld1662              500.00000     100.00000      30.00000  
fld1671              500.00000     100.00000      30.00000  
fld1672              500.00000     100.00000      30.00000  
fld1681              500.00000     100.00000      30.00000  
fld1682              500.00000     100.00000      30.00000  
fld1691              500.00000     100.00000      30.00000  
fld1692              500.00000     100.00000      30.00000  
fld1701              500.00000     100.00000      30.00000  
fld1702              500.00000     100.00000      30.00000  
fld1711              500.00000     100.00000      30.00000  
fld1712              500.00000     100.00000      30.00000  
fld1721              500.00000     100.00000      30.00000  
fld1722              500.00000     100.00000      30.00000  
fld1731              500.00000     100.00000      30.00000  
fld1732              500.00000     100.00000      30.00000  
fld1741              500.00000     100.00000      30.00000  
fld1742              500.00000     100.00000      30.00000  
fld1751              500.00000     100.00000      30.00000  
fld1752              500.00000     100.00000      30.00000  
fld1761              500.00000     100.00000      30.00000  
fld1762              500.00000     100.00000      30.00000  
fld1771              500.00000     100.00000      30.00000  
fld1772              500.00000     100.00000      30.00000  
fld1781              500.00000     100.00000      30.00000  
fld1782              500.00000     100.00000      30.00000  
fld1791              500.00000     100.00000      30.00000  
fld1792              500.00000     100.00000      30.00000  
fld1801              500.00000     100.00000      30.00000  
fld1802              500.00000     100.00000      30.00000  
fld1811              500.00000     100.00000      30.00000  
fld1812              500.00000     100.00000      30.00000  
fld1821              500.00000     100.00000      30.00000  
fld1822              500.00000     100.00000      30.00000  
fld1831              500.00000     100.00000      30.00000  
fld1832              500.00000     100.00000      30.00000  
fld1841              500.00000     100.00000      30.00000  
fld1842              500.00000     100.00000      30.00000  
fld1851              500.00000     100.00000      30.00000  
fld1852              500.00000     100.00000      30.00000  
fld1861              500.00000     100.00000      30.00000  
fld1862              500.00000     100.00000      30.00000  
fld1871              500.00000     100.00000      30.00000  
fld1872              500.00000     100.00000      30.00000  
fld1881              500.00000     100.00000      30.00000  
fld1882              500.00000     100.00000      30.00000  
fld1891              500.00000     100.00000      30.00000  
fld1901              500.00000     100.00000      30.00000  
fld1902              500.00000     100.00000      30.00000  
fld1911              500.00000     100.00000      30.00000  
fld1912              500.00000     100.00000      30.00000  
fld1921              500.00000     100.00000      30.00000  
fld1922              500.00000     100.00000      30.00000  
fld1931              500.00000     100.00000      30.00000  
fld1932              500.00000     100.00000      30.00000  
fld1941              500.00000     100.00000      30.00000  
fld1942              500.00000     100.00000      30.00000  
fld1951              500.00000     100.00000      30.00000  
fld1952              500.00000     100.00000      30.00000  
fld1961              500.00000     100.00000      30.00000  
fld1962              500.00000     100.00000      30.00000  
fld1971              500.00000     100.00000      30.00000  
fld1972              500.00000     100.00000      30.00000  
fld1981              500.00000     100.00000      30.00000  
fld1982              500.00000     100.00000      30.00000  
fld1991              500.00000     100.00000      30.00000  
fld1992              500.00000     100.00000      30.00000  
fld2001              500.00000     100.00000      30.00000  
fld2002              500.00000     100.00000      30.00000  
fld2011              500.00000     100.00000      30.00000  
fld2012              500.00000     100.00000      30.00000  
fld2021              500.00000     100.00000      30.00000  
fld2022              500.00000     100.00000      30.00000  
fld2031              500.00000     100.00000      30.00000  
fld2032              500.00000     100.00000      30.00000  
fld2041              500.00000     100.00000      30.00000  
fld2042              500.00000     100.00000      30.00000  
fld2051              500.00000     100.00000      30.00000  
fld2052              500.00000     100.00000      30.00000  
fld2061              500.00000     100.00000      30.00000  
fld2062              500.00000     100.00000      30.00000  
fld2071              500.00000     100.00000      30.00000  
fld2072              500.00000     100.00000      30.00000  
fld2081              500.00000     100.00000      30.00000  
fld2082              500.00000     100.00000      30.00000  
fld2091              500.00000     100.00000      30.00000  
fld2092              500.00000     100.00000      30.00000  
fld2101              500.00000     100.00000      30.00000  
fld2102              500.00000     100.00000      30.00000  
fld2111              500.00000     100.00000      30.00000  
fld2112              500.00000     100.00000      30.00000  
fld2121              500.00000     100.00000      30.00000  
fld2122              500.00000     100.00000      30.00000  
fld2131              500.00000     100.00000      30.00000  
fld2132              500.00000     100.00000      30.00000  
fld2141              500.00000     100.00000      30.00000  
fld2142              500.00000     100.00000      30.00000  
fld2151              500.00000     100.00000      30.00000  
fld2152              500.00000     100.00000      30.00000  
fld2161              500.00000     100.00000      30.00000  
fld2162              500.00000     100.00000      30.00000  
fld2171              500.00000     100.00000      30.00000  
fld2172              500.00000     100.00000      30.00000  
fld2181              500.00000     100.00000      30.00000  
fld2182              500.00000     100.00000      30.00000  
fld2191              500.00000     100.00000      30.00000  
fld2192              500.00000     100.00000      30.00000  
fld2201              500.00000     100.00000      30.00000  
fld2202              500.00000     100.00000      30.00000  
fld2211              500.00000     100.00000      30.00000  
fld2212              500.00000     100.00000      30.00000  
fld2221              500.00000     100.00000      30.00000  
fld2222              500.00000     100.00000      30.00000  
fld2231              500.00000     100.00000      30.00000  
fld2232              500.00000     100.00000      30.00000  
fld2241              500.00000     100.00000      30.00000  
fld2242              500.00000     100.00000      30.00000  
fld2251              500.00000     100.00000      30.00000  
fld2252              500.00000     100.00000      30.00000  
fld2261              500.00000     100.00000      30.00000  
fld2262              500.00000     100.00000      30.00000  
fld2271              500.00000     100.00000      30.00000  
fld2272              500.00000     100.00000      30.00000  
fld2281              500.00000     100.00000      30.00000  
fld2282              500.00000     100.00000      30.00000  
fld2291              500.00000     100.00000      30.00000  
fld2292              500.00000     100.00000      30.00000  
fld2301              500.00000     100.00000      30.00000  
fld2302              500.00000     100.00000      30.00000  
fld2311              500.00000     100.00000      30.00000  
fld2312              500.00000     100.00000      30.00000  
fld2321              500.00000     100.00000      30.00000  
fld2322              500.00000     100.00000      30.00000  
fld2331              500.00000     100.00000      30.00000  
fld2332              500.00000     100.00000      30.00000  
fld2341              500.00000     100.00000      30.00000  
fld2342              500.00000     100.00000      30.00000  
fld2351              500.00000     100.00000      30.00000  
fld2352              500.00000     100.00000      30.00000  
fld2361              500.00000     100.00000      30.00000  
fld2362              500.00000     100.00000      30.00000  
fld2371              500.00000     100.00000      30.00000  
fld2372              500.00000     100.00000      30.00000  
fld2381              500.00000     100.00000      30.00000  
fld2382              500.00000     100.00000      30.00000  
fld2391              500.00000     100.00000      30.00000  
fld2392              500.00000     100.00000      30.00000  
fld2401              500.00000     100.00000      30.00000  
fld2402              500.00000     100.00000      30.00000  
fld2411              500.00000     100.00000      30.00000  
fld2412              500.00000     100.00000      30.00000  
fld2421              500.00000     100.00000      30.00000  
fld2422              500.00000     100.00000      30.00000  
fld2431              500.00000     100.00000      30.00000  
fld2432              500.00000     100.00000      30.00000  