grassedww.str: written by SWAT+ editor v2.0.4 on 2022-01-21 12:23
name                  flag          mann        sed_co            dp            wd           len           slp  description
grwway_high              1       0.05000       0.02000       1.00000      10.00000       0.50000       0.10000  Slope_>8
grwway_med               1       0.05000       0.02000       0.75000      10.00000       0.75000       0.03500  Slope_2-5
grwway_low               1       0.05000       0.02000       0.50000      10.00000       1.00000       0.01000  Slope_0-2
