hmd.cli: Relative humidity file names - file written by SWAT+ editor 2022-01-21 12:20:48.947082
filename
owcmet_hmd.hmd
