hru-data.hru: written by SWAT+ editor v2.0.4 on 2022-01-21 12:22
      id  name                          topo             hydro              soil            lu_mgt   soil_plant_init         surf_stor              snow             field  
       1  hru0001                topohru0001           hyd0001            167956          frsd_lum        soilplant1              null           snow001              null
       2  hru0002                topohru0002           hyd0002            167956          frsd_lum        soilplant1              null           snow001              null
       3  hru0003                topohru0003           hyd0003            172205          frsd_lum        soilplant1              null           snow001              null
       4  hru0004                topohru0004           hyd0004            172202          urml_lum        soilplant1              null           snow001              null
       5  hru0005                topohru0005           hyd0005            167956          urml_lum        soilplant1              null           snow001              null
       6  hru0006                topohru0006           hyd0006            172205          urml_lum        soilplant1              null           snow001              null
       7  hru0007                topohru0007           hyd0007            172107          urml_lum        soilplant1              null           snow001              null
       8  hru0008                topohru0008           hyd0008            172205          frsd_lum        soilplant1              null           snow001              null
       9  hru0009                topohru0009           hyd0009            172130          frsd_lum        soilplant1              null           snow001              null
      10  hru0010                topohru0010           hyd0010            167956          frsd_lum        soilplant1              null           snow001              null
      11  hru0011                topohru0011           hyd0011            172107          frsd_lum        soilplant1              null           snow001              null
      12  hru0012                topohru0012           hyd0012            172130          urml_lum        soilplant1              null           snow001              null
      13  hru0013                topohru0013           hyd0013            172205          urml_lum        soilplant1              null           snow001              null
      14  hru0014                topohru0014           hyd0014            172202          urml_lum        soilplant1              null           snow001              null
      15  hru0015                topohru0015           hyd0015            172113          urml_lum        soilplant1              null           snow001              null
      16  hru0016                topohru0016           hyd0016            172107          urml_lum        soilplant1              null           snow001              null
      17  hru0017                topohru0017           hyd0017            172202          urml_lum        soilplant1              null           snow001              null
      18  hru0018                topohru0018           hyd0018            167956          urml_lum        soilplant1              null           snow001              null
      19  hru0019                topohru0019           hyd0019            172203          urml_lum        soilplant1              null           snow001              null
      20  hru0020                topohru0020           hyd0020            172203          frsd_lum        soilplant1              null           snow001              null
      21  hru0021                topohru0021           hyd0021            167956          frsd_lum        soilplant1              null           snow001              null
      22  hru0022                topohru0022           hyd0022            172113          urml_lum        soilplant1              null           snow001              null
      23  hru0023                topohru0023           hyd0023            172202          urml_lum        soilplant1              null           snow001              null
      24  hru0024                topohru0024           hyd0024            172203          urml_lum        soilplant1              null           snow001              null
      25  hru0025                topohru0025           hyd0025            172130          urml_lum        soilplant1              null           snow001              null
      26  hru0026                topohru0026           hyd0026            172106          urml_lum        soilplant1              null           snow001              null
      27  hru0027                topohru0027           hyd0027            172107          urml_lum        soilplant1              null           snow001              null
      28  hru0028                topohru0028           hyd0028            172113          frsd_lum        soilplant1              null           snow001              null
      29  hru0029                topohru0029           hyd0029            172203          frsd_lum        soilplant1              null           snow001              null
      30  hru0030                topohru0030           hyd0030            167956          frsd_lum        soilplant1              null           snow001              null
      31  hru0031                topohru0031           hyd0031            172202          frsd_lum        soilplant1              null           snow001              null
      32  hru0032                topohru0032           hyd0032            172136          frsd_lum        soilplant1              null           snow001              null
      33  hru0033                topohru0033           hyd0033            172166          frsd_lum        soilplant1              null           snow001              null
      34  hru0034                topohru0034           hyd0034            172106          frsd_lum        soilplant1              null           snow001              null
      35  hru0035                topohru0035           hyd0035            172130          frsd_lum        soilplant1              null           snow001              null
      36  hru0036                topohru0036           hyd0036            172107          frsd_lum        soilplant1              null           snow001              null
      37  hru0037                topohru0037           hyd0037            172205          urml_lum        soilplant1              null           snow001              null
      38  hru0038                topohru0038           hyd0038            172107          urml_lum        soilplant1              null           snow001              null
      39  hru0039                topohru0039           hyd0039            167956          urml_lum        soilplant1              null           snow001              null
      40  hru0040                topohru0040           hyd0040            172130          urml_lum        soilplant1              null           snow001              null
      41  hru0041                topohru0041           hyd0041            167956          frsd_lum        soilplant1              null           snow001              null
      42  hru0042                topohru0042           hyd0042            172205          frsd_lum        soilplant1              null           snow001              null
      43  hru0043                topohru0043           hyd0043            172130          frsd_lum        soilplant1              null           snow001              null
      44  hru0044                topohru0044           hyd0044            172107          urml_lum        soilplant1              null           snow001              null
      45  hru0045                topohru0045           hyd0045            172130          urml_lum        soilplant1              null           snow001              null
      46  hru0046                topohru0046           hyd0046            172205          urml_lum        soilplant1              null           snow001              null
      47  hru0047                topohru0047           hyd0047            172130          frsd_lum        soilplant1              null           snow001              null
      48  hru0048                topohru0048           hyd0048            172156          urml_lum        soilplant1              null           snow001              null
      49  hru0049                topohru0049           hyd0049            172130          urml_lum        soilplant1              null           snow001              null
      50  hru0050                topohru0050           hyd0050            172113          urml_lum        soilplant1              null           snow001              null
      51  hru0051                topohru0051           hyd0051            172151          urml_lum        soilplant1              null           snow001              null
      52  hru0052                topohru0052           hyd0052            172106          urml_lum        soilplant1              null           snow001              null
      53  hru0053                topohru0053           hyd0053            172136          urml_lum        soilplant1              null           snow001              null
      54  hru0054                topohru0054           hyd0054            172107          urml_lum        soilplant1              null           snow001              null
      55  hru0055                topohru0055           hyd0055            172205          urml_lum        soilplant1              null           snow001              null
      56  hru0056                topohru0056           hyd0056            172156          frsd_lum        soilplant1              null           snow001              null
      57  hru0057                topohru0057           hyd0057            172113          frsd_lum        soilplant1              null           snow001              null
      58  hru0058                topohru0058           hyd0058            172130          frsd_lum        soilplant1              null           snow001              null
      59  hru0059                topohru0059           hyd0059            172106          frsd_lum        soilplant1              null           snow001              null
      60  hru0060                topohru0060           hyd0060            172107          frsd_lum        soilplant1              null           snow001              null
      61  hru0061                topohru0061           hyd0061            172205          frsd_lum        soilplant1              null           snow001              null
      62  hru0062                topohru0062           hyd0062            172151          frsd_lum        soilplant1              null           snow001              null
      63  hru0063                topohru0063           hyd0063            172145          frsd_lum        soilplant1              null           snow001              null
      64  hru0064                topohru0064           hyd0064            172130      SC_NT_tile_B     soilnut_40-50              null           snow001              null
      65  hru0065                topohru0065           hyd0065            172156        SC_FT_tile     soilnut_10-20              null           snow001              null
      66  hru0066                topohru0066           hyd0066            172113         SC_RotT_B     soilnut_10-20              null           snow001              null
      67  hru0067                topohru0067           hyd0067            172151  CS_NT_tile_GW_LS   soilnut_100-110              null           snow001              null
      68  hru0068                topohru0068           hyd0068            172107      SC_NT_tile_B   soilnut_100-110              null           snow001              null
      69  hru0069                topohru0069           hyd0069            172113         SC_RotT_B     soilnut_30-40              null           snow001              null
      70  hru0070                topohru0070           hyd0070            172205          urml_lum        soilplant1              null           snow001              null
      71  hru0071                topohru0071           hyd0071            172107          urml_lum        soilplant1              null           snow001              null
      72  hru0072                topohru0072           hyd0072            172107        CS_FT_tile     soilnut_20-30              null           snow001              null
      73  hru0073                topohru0073           hyd0073            172130    SC_RotT_tile_B     soilnut_10-20              null           snow001              null
      74  hru0074                topohru0074           hyd0074            172205          frsd_lum        soilplant1              null           snow001              null
      75  hru0075                topohru0075           hyd0075            172107          frsd_lum        soilplant1              null           snow001              null
      76  hru0076                topohru0076           hyd0076            172145          frsd_lum        soilplant1              null           snow001              null
      77  hru0077                topohru0077           hyd0077            172130          urml_lum        soilplant1              null           snow001              null
      78  hru0078                topohru0078           hyd0078            172113          urml_lum        soilplant1              null           snow001              null
      79  hru0079                topohru0079           hyd0079            172113          frsd_lum        soilplant1              null           snow001              null
      80  hru0080                topohru0080           hyd0080            172130          frsd_lum        soilplant1              null           snow001              null
      81  hru0081                topohru0081           hyd0081            172205          frsd_lum        soilplant1              null           snow001              null
      82  hru0082                topohru0082           hyd0082            172106          frsd_lum        soilplant1              null           snow001              null
      83  hru0083                topohru0083           hyd0083            167956          frsd_lum        soilplant1              null           snow001              null
      84  hru0084                topohru0084           hyd0084            172145          frsd_lum        soilplant1              null           snow001              null
      85  hru0085                topohru0085           hyd0085            172130          frsd_lum        soilplant1              null           snow001              null
      86  hru0086                topohru0086           hyd0086            172205          frsd_lum        soilplant1              null           snow001              null
      87  hru0087                topohru0087           hyd0087            167956          frsd_lum        soilplant1              null           snow001              null
      88  hru0088                topohru0088           hyd0088            172106          frsd_lum        soilplant1              null           snow001              null
      89  hru0089                topohru0089           hyd0089            172106          frsd_lum        soilplant1              null           snow001              null
      90  hru0090                topohru0090           hyd0090            172130          frsd_lum        soilplant1              null           snow001              null
      91  hru0091                topohru0091           hyd0091            172205          frsd_lum        soilplant1              null           snow001              null
      92  hru0092                topohru0092           hyd0092            172145          frsd_lum        soilplant1              null           snow001              null
      93  hru0093                topohru0093           hyd0093            172145          frsd_lum        soilplant1              null           snow001              null
      94  hru0094                topohru0094           hyd0094            172205          frsd_lum        soilplant1              null           snow001              null
      95  hru0095                topohru0095           hyd0095            172113       CS_NT_GW_LS     soilnut_10-20              null           snow001              null
      96  hru0096                topohru0096           hyd0096            172151      SC_NT_tile_B    soilnut_90-100              null           snow001              null
      97  hru0097                topohru0097           hyd0097            172130  CS_NT_tile_GW_LS     soilnut_30-40              null           snow001              null
      98  hru0098                topohru0098           hyd0098            172114           SC_NT_B     soilnut_40-50              null           snow001              null
      99  hru0099                topohru0099           hyd0099            172185      CS_RT_tile_B   soilnut_140-150              null           snow001              null
     100  hru0100                topohru0100           hyd0100            172205  CS_NT_tile_GW_HS        soilplant1              null           snow001              null
     101  hru0101                topohru0101           hyd0101            172123        CS_FT_tile     soilnut_30-40              null           snow001              null
     102  hru0102                topohru0102           hyd0102            172156        CS_FT_tile     soilnut_20-30              null           snow001              null
     103  hru0103                topohru0103           hyd0103            172184    CS_NTcc_tile_B     soilnut_30-40              null           snow001              null
     104  hru0104                topohru0104           hyd0104            172113          frsd_lum        soilplant1              null           snow001              null
     105  hru0105                topohru0105           hyd0105            172130          frsd_lum        soilplant1              null           snow001              null
     106  hru0106                topohru0106           hyd0106            172205          frsd_lum        soilplant1              null           snow001              null
     107  hru0107                topohru0107           hyd0107            172156          frsd_lum        soilplant1              null           snow001              null
     108  hru0108                topohru0108           hyd0108            172145          frsd_lum        soilplant1              null           snow001              null
     109  hru0109                topohru0109           hyd0109            172185          frsd_lum        soilplant1              null           snow001              null
     110  hru0110                topohru0110           hyd0110            172106          frsd_lum        soilplant1              null           snow001              null
     111  hru0111                topohru0111           hyd0111            172184          frsd_lum        soilplant1              null           snow001              null
     112  hru0112                topohru0112           hyd0112            167956          frsd_lum        soilplant1              null           snow001              null
     113  hru0113                topohru0113           hyd0113            172107          frsd_lum        soilplant1              null           snow001              null
     114  hru0114                topohru0114           hyd0114            172113          urml_lum        soilplant1              null           snow001              null
     115  hru0115                topohru0115           hyd0115            172151          urml_lum        soilplant1              null           snow001              null
     116  hru0116                topohru0116           hyd0116            172130          urml_lum        soilplant1              null           snow001              null
     117  hru0117                topohru0117           hyd0117            172185          urml_lum        soilplant1              null           snow001              null
     118  hru0118                topohru0118           hyd0118            172156          urml_lum        soilplant1              null           snow001              null
     119  hru0119                topohru0119           hyd0119            172205          urml_lum        soilplant1              null           snow001              null
     120  hru0120                topohru0120           hyd0120            172114          urml_lum        soilplant1              null           snow001              null
     121  hru0121                topohru0121           hyd0121            172123          urml_lum        soilplant1              null           snow001              null
     122  hru0122                topohru0122           hyd0122            172184          urml_lum        soilplant1              null           snow001              null
     123  hru0123                topohru0123           hyd0123            167956          urml_lum        soilplant1              null           snow001              null
     124  hru0124                topohru0124           hyd0124            172107          urml_lum        soilplant1              null           snow001              null
     125  hru0125                topohru0125           hyd0125            172113           SC_NT_B   soilnut_120-130              null           snow001              null
     126  hru0126                topohru0126           hyd0126            172185      CS_RT_tile_B     soilnut_30-40              null           snow001              null
     127  hru0127                topohru0127           hyd0127            172151    SC_RotT_tile_B     soilnut_20-30              null           snow001              null
     128  hru0128                topohru0128           hyd0128            172114           SC_NT_B     soilnut_20-30              null           snow001              null
     129  hru0129                topohru0129           hyd0129            172123        CS_FT_tile     soilnut_40-50              null           snow001              null
     130  hru0130                topohru0130           hyd0130            172184         CSWS_tile     soilnut_20-30              null           snow001              null
     131  hru0131                topohru0131           hyd0131            172130        SC_RT_tile     soilnut_20-30              null           snow001              null
     132  hru0132                topohru0132           hyd0132            172145          frsd_lum        soilplant1              null           snow001              null
     133  hru0133                topohru0133           hyd0133            172205          frsd_lum        soilplant1              null           snow001              null
     134  hru0134                topohru0134           hyd0134            172130          frsd_lum        soilplant1              null           snow001              null
     135  hru0135                topohru0135           hyd0135            172185          frsd_lum        soilplant1              null           snow001              null
     136  hru0136                topohru0136           hyd0136            172184          frsd_lum        soilplant1              null           snow001              null
     137  hru0137                topohru0137           hyd0137            172156          frsd_lum        soilplant1              null           snow001              null
     138  hru0138                topohru0138           hyd0138            172113          frsd_lum        soilplant1              null           snow001              null
     139  hru0139                topohru0139           hyd0139            172156          urml_lum        soilplant1              null           snow001              null
     140  hru0140                topohru0140           hyd0140            172184          urml_lum        soilplant1              null           snow001              null
     141  hru0141                topohru0141           hyd0141            172130          urml_lum        soilplant1              null           snow001              null
     142  hru0142                topohru0142           hyd0142            172113          urml_lum        soilplant1              null           snow001              null
     143  hru0143                topohru0143           hyd0143            172203          frsd_lum        soilplant1              null           snow001              null
     144  hru0144                topohru0144           hyd0144            167956          frsd_lum        soilplant1              null           snow001              null
     145  hru0145                topohru0145           hyd0145            172205          frsd_lum        soilplant1              null           snow001              null
     146  hru0146                topohru0146           hyd0146            172106          frsd_lum        soilplant1              null           snow001              null
     147  hru0147                topohru0147           hyd0147            172203          frsd_lum        soilplant1              null           snow001              null
     148  hru0148                topohru0148           hyd0148            172106          frsd_lum        soilplant1              null           snow001              null
     149  hru0149                topohru0149           hyd0149            167956          frsd_lum        soilplant1              null           snow001              null
     150  hru0150                topohru0150           hyd0150            172106          frsd_lum        soilplant1              null           snow001              null
     151  hru0151                topohru0151           hyd0151            172203          frsd_lum        soilplant1              null           snow001              null
     152  hru0152                topohru0152           hyd0152            167956          frsd_lum        soilplant1              null           snow001              null
     153  hru0153                topohru0153           hyd0153            172107          frsd_lum        soilplant1              null           snow001              null
     154  hru0154                topohru0154           hyd0154            172113          frsd_lum        soilplant1              null           snow001              null
     155  hru0155                topohru0155           hyd0155            172107          urml_lum        soilplant1              null           snow001              null
     156  hru0156                topohru0156           hyd0156            172113          urml_lum        soilplant1              null           snow001              null
     157  hru0157                topohru0157           hyd0157            167956          frsd_lum        soilplant1              null           snow001              null
     158  hru0158                topohru0158           hyd0158            172203          frsd_lum        soilplant1              null           snow001              null
     159  hru0159                topohru0159           hyd0159            172107          frsd_lum        soilplant1              null           snow001              null
     160  hru0160                topohru0160           hyd0160            172145          frsd_lum        soilplant1              null           snow001              null
     161  hru0161                topohru0161           hyd0161            172113          frsd_lum        soilplant1              null           snow001              null
     162  hru0162                topohru0162           hyd0162            172151          frsd_lum        soilplant1              null           snow001              null
     163  hru0163                topohru0163           hyd0163            172106          frsd_lum        soilplant1              null           snow001              null
     164  hru0164                topohru0164           hyd0164            167956          frsd_lum        soilplant1              null           snow001              null
     165  hru0165                topohru0165           hyd0165            172203          frsd_lum        soilplant1              null           snow001              null
     166  hru0166                topohru0166           hyd0166            172107          frsd_lum        soilplant1              null           snow001              null
     167  hru0167                topohru0167           hyd0167            172113          urml_lum        soilplant1              null           snow001              null
     168  hru0168                topohru0168           hyd0168            172106          urml_lum        soilplant1              null           snow001              null
     169  hru0169                topohru0169           hyd0169            167956          urml_lum        soilplant1              null           snow001              null
     170  hru0170                topohru0170           hyd0170            172203          urml_lum        soilplant1              null           snow001              null
     171  hru0171                topohru0171           hyd0171            172107          urml_lum        soilplant1              null           snow001              null
     172  hru0172                topohru0172           hyd0172            172113           SC_NT_B     soilnut_30-40              null           snow001              null
     173  hru0173                topohru0173           hyd0173            167956          frsd_lum        soilplant1              null           snow001              null