hru.con: written by SWAT+ editor v2.0.4 on 2022-01-21 12:22
      id  name                gis_id          area           lat           lon          elev       hru               wst       cst      ovfl      rule   out_tot  
       1  hru0001                  1       0.02000      41.38381     -82.51412     173.50000         1     s41378n82508w         0         0         0         0  
       2  hru0002                  2       0.96000      41.38292     -82.51336     174.40625         2     s41378n82508w         0         0         0         0  
       3  hru0003                  3       0.05000      41.38232     -82.51313     174.20000         3     s41378n82508w         0         0         0         0  
       4  hru0004                  4       0.33000      41.38334     -82.51518     178.00000         4     s41378n82508w         0         0         0         0  
       5  hru0005                  5       0.30000      41.38291     -82.51431     175.46667         5     s41378n82508w         0         0         0         0  
       6  hru0006                  6       0.35000      41.38192     -82.51287     178.11429         6     s41378n82508w         0         0         0         0  
       7  hru0007                  7       0.40000      41.38163     -82.51240     179.97500         7     s41378n82508w         0         0         0         0  
       8  hru0008                  8       0.87000      41.38248     -82.51123     176.97701         8     s41378n82508w         0         0         0         0  
       9  hru0009                  9       0.73000      41.38220     -82.50952     181.76712         9     s41378n82508w         0         0         0         0  
      10  hru0010                 10       1.39000      41.38276     -82.51177     174.11511        10     s41378n82508w         0         0         0         0  
      11  hru0011                 11       0.78000      41.38231     -82.51042     180.34615        11     s41378n82508w         0         0         0         0  
      12  hru0012                 12       1.74000      41.38137     -82.50990     182.05747        12     s41378n82508w         0         0         0         0  
      13  hru0013                 13       0.08000      41.38218     -82.51212     179.75000        13     s41378n82508w         0         0         0         0  
      14  hru0014                 14       0.15000      41.38327     -82.51574     179.26667        14     s41378n82508w         0         0         0         0  
      15  hru0015                 15       0.18000      41.38115     -82.50935     182.66667        15     s41378n82508w         0         0         0         0  
      16  hru0016                 16       1.49000      41.38154     -82.51103     181.09396        16     s41378n82508w         0         0         0         0  
      17  hru0017                 17       0.13000      41.38288     -82.51543     178.30769        17     s41378n82508w         0         0         0         0  
      18  hru0018                 18       0.13000      41.38267     -82.51518     175.53846        18     s41378n82508w         0         0         0         0  
      19  hru0019                 19       0.12000      41.38262     -82.51544     176.25000        19     s41378n82508w         0         0         0         0  
      20  hru0020                 20       0.03000      41.37623     -82.51353     178.00000        20     s41378n82508w         0         0         0         0  
      21  hru0021                 21       0.02000      41.37593     -82.51685     174.00000        21     s41378n82508w         0         0         0         0  
      22  hru0022                 22       0.21000      41.38125     -82.51693     182.19048        22     s41378n82508w         0         0         0         0  
      23  hru0023                 23       0.10000      41.38281     -82.51577     179.70000        23     s41378n82508w         0         0         0         0  
      24  hru0024                 24       0.05000      41.38257     -82.51600     179.60000        24     s41378n82508w         0         0         0         0  
      25  hru0025                 25       0.14000      41.37623     -82.51933     184.57143        25     s41378n82508w         0         0         0         0  
      26  hru0026                 26       0.38000      41.37556     -82.51824     184.86842        26     s41378n82508w         0         0         0         0  
      27  hru0027                 27       0.02000      41.37351     -82.51610     185.50000        27     s41378n82508w         0         0         0         0  
      28  hru0028                 28       2.99000      41.37775     -82.51897     184.48829        28     s41378n82508w         0         0         0         0  
      29  hru0029                 29       7.38000      41.37784     -82.51616     179.70732        29     s41378n82508w         0         0         0         0  
      30  hru0030                 30       1.48000      41.37722     -82.51592     175.83108        30     s41378n82508w         0         0         0         0  
      31  hru0031                 31       0.06000      41.38199     -82.51696     182.16667        31     s41378n82508w         0         0         0         0  
      32  hru0032                 32       2.13000      41.37977     -82.51688     182.48826        32     s41378n82508w         0         0         0         0  
      33  hru0033                 33       2.25000      41.37854     -82.51818     184.43556        33     s41378n82508w         0         0         0         0  
      34  hru0034                 34       3.30000      41.37739     -82.51622     182.63939        34     s41378n82508w         0         0         0         0  
      35  hru0035                 35       0.40000      41.37643     -82.51874     183.87500        35     s41378n82508w         0         0         0         0  
      36  hru0036                 36       0.19000      41.37385     -82.51585     184.47368        36     s41378n82508w         0         0         0         0  
      37  hru0037                 37       1.36000      41.38115     -82.51231     178.37500        37     s41378n82508w         0         0         0         0  
      38  hru0038                 38       0.12000      41.38134     -82.51225     180.75000        38     s41378n82508w         0         0         0         0  
      39  hru0039                 39       0.12000      41.38065     -82.51199     174.83333        39     s41378n82508w         0         0         0         0  
      40  hru0040                 40       0.05000      41.38005     -82.51062     181.80000        40     s41378n82508w         0         0         0         0  
      41  hru0041                 41       0.50000      41.37940     -82.51116     174.10000        41     s41378n82508w         0         0         0         0  
      42  hru0042                 42       0.97000      41.37921     -82.51069     179.81443        42     s41378n82508w         0         0         0         0  
      43  hru0043                 43       0.58000      41.37947     -82.51032     182.84483        43     s41378n82508w         0         0         0         0  
      44  hru0044                 44       0.18000      41.38066     -82.51063     182.05556        44     s41378n82508w         0         0         0         0  
      45  hru0045                 45       1.51000      41.38007     -82.50929     182.79470        45     s41378n82508w         0         0         0         0  
      46  hru0046                 46       0.33000      41.38037     -82.51042     180.66667        46     s41378n82508w         0         0         0         0  
      47  hru0047                 47       0.48000      41.37942     -82.50954     183.00000        47     s41378n82508w         0         0         0         0  
      48  hru0048                 48       0.80000      41.37827     -82.50010     183.65000        48     s41378n82508w         0         0         0         0  
      49  hru0049                 49       0.93000      41.37760     -82.50199     183.93548        49     s41378n82508w         0         0         0         0  
      50  hru0050                 50       3.55000      41.37731     -82.49877     184.03944        50     s41378n82508w         0         0         0         0  
      51  hru0051                 51       0.93000      41.37673     -82.49820     184.01075        51     s41378n82508w         0         0         0         0  
      52  hru0052                 52       0.10000      41.37842     -82.50344     183.80000        52     s41378n82508w         0         0         0         0  
      53  hru0053                 53       0.18000      41.37670     -82.49723     184.83333        53     s41378n82508w         0         0         0         0  
      54  hru0054                 54       0.13000      41.37746     -82.50370     182.15385        54     s41378n82508w         0         0         0         0  
      55  hru0055                 55       0.02000      41.37744     -82.50384     181.50000        55     s41378n82508w         0         0         0         0  
      56  hru0056                 56       0.11000      41.37764     -82.49982     183.90909        56     s41378n82508w         0         0         0         0  
      57  hru0057                 57       1.63000      41.37738     -82.49933     184.09202        57     s41378n82508w         0         0         0         0  
      58  hru0058                 58       2.61000      41.37704     -82.50459     183.59770        58     s41378n82508w         0         0         0         0  
      59  hru0059                 59       0.93000      41.37820     -82.50487     184.04301        59     s41378n82508w         0         0         0         0  
      60  hru0060                 60       1.42000      41.37728     -82.50414     182.52113        60     s41378n82508w         0         0         0         0  
      61  hru0061                 61       1.30000      41.37655     -82.50526     180.35385        61     s41378n82508w         0         0         0         0  
      62  hru0062                 62       0.08000      41.37593     -82.49811     184.50000        62     s41378n82508w         0         0         0         0  
      63  hru0063                 63       0.01000      41.37573     -82.50600     176.00000        63     s41378n82508w         0         0         0         0  
      64  hru0064                 64       4.35000      41.37714     -82.50200     183.83218        64     s41378n82508w         0         0         0         0  
      65  hru0065                 65       1.43000      41.37751     -82.50184     183.39860        65     s41378n82508w         0         0         0         0  
      66  hru0066                 66       1.87000      41.37752     -82.49947     183.95722        66     s41378n82508w         0         0         0         0  
      67  hru0067                 67       0.08000      41.37734     -82.49764     184.00000        67     s41378n82508w         0         0         0         0  
      68  hru0068                 68       0.46000      41.37709     -82.50295     182.91304        68     s41378n82508w         0         0         0         0  
      69  hru0069                 69       0.09000      41.37775     -82.49782     184.11111        69     s41378n82508w         0         0         0         0  
      70  hru0070                 70       0.01000      41.37731     -82.50387     181.00000        70     s41378n82508w         0         0         0         0  
      71  hru0071                 71       0.02000      41.37729     -82.50369     181.00000        71     s41378n82508w         0         0         0         0  
      72  hru0072                 72       0.07000      41.37711     -82.50281     182.42857        72     s41378n82508w         0         0         0         0  
      73  hru0073                 73       0.02000      41.37714     -82.50226     183.00000        73     s41378n82508w         0         0         0         0  
      74  hru0074                 74       0.18000      41.37656     -82.50497     178.16667        74     s41378n82508w         0         0         0         0  
      75  hru0075                 75       0.06000      41.37711     -82.50383     180.50000        75     s41378n82508w         0         0         0         0  
      76  hru0076                 76       0.04000      41.37584     -82.50616     176.00000        76     s41378n82508w         0         0         0         0  
      77  hru0077                 77       0.15000      41.37942     -82.50834     183.13333        77     s41378n82508w         0         0         0         0  
      78  hru0078                 78       0.15000      41.37948     -82.50820     183.26667        78     s41378n82508w         0         0         0         0  
      79  hru0079                 79       0.07000      41.37924     -82.50760     184.00000        79     s41378n82508w         0         0         0         0  
      80  hru0080                 80       4.23000      41.37823     -82.50809     183.51537        80     s41378n82508w         0         0         0         0  
      81  hru0081                 81       1.50000      41.37702     -82.50870     180.38667        81     s41378n82508w         0         0         0         0  
      82  hru0082                 82       1.67000      41.37541     -82.50814     183.69461        82     s41378n82508w         0         0         0         0  
      83  hru0083                 83       0.06000      41.37660     -82.50853     175.50000        83     s41378n82508w         0         0         0         0  
      84  hru0084                 84       0.15000      41.37637     -82.50826     175.33333        84     s41378n82508w         0         0         0         0  
      85  hru0085                 85       0.16000      41.37798     -82.50949     181.62500        85     s41378n82508w         0         0         0         0  
      86  hru0086                 86       0.94000      41.37744     -82.50962     179.72340        86     s41378n82508w         0         0         0         0  
      87  hru0087                 87       0.51000      41.37758     -82.50989     175.90196        87     s41378n82508w         0         0         0         0  
      88  hru0088                 88       0.24000      41.37599     -82.50943     180.66667        88     s41378n82508w         0         0         0         0  
      89  hru0089                 89       0.61000      41.37562     -82.50701     183.86885        89     s41378n82508w         0         0         0         0  
      90  hru0090                 90       1.51000      41.37711     -82.50665     183.91391        90     s41378n82508w         0         0         0         0  
      91  hru0091                 91       1.52000      41.37617     -82.50712     179.97368        91     s41378n82508w         0         0         0         0  
      92  hru0092                 92       0.39000      41.37600     -82.50724     175.66667        92     s41378n82508w         0         0         0         0  
      93  hru0093                 93       0.23000      41.37599     -82.50739     175.00000        93     s41378n82508w         0         0         0         0  
      94  hru0094                 94       0.02000      41.37602     -82.50783     175.00000        94     s41378n82508w         0         0         0         0  
      95  hru0095                 95       2.36000      41.37455     -82.49368     185.30508        95     s41378n82508w         0         0         0         0  
      96  hru0096                 96       1.02000      41.37441     -82.49094     185.52941        96     s41378n82508w         0         0         0         0  
      97  hru0097                 97       2.84000      41.37464     -82.50148     184.31338        97     s41378n82508w         0         0         0         0  
      98  hru0098                 98       0.93000      41.37420     -82.49024     185.82796        98     s41378n82508w         0         0         0         0  
      99  hru0099                 99       0.81000      41.37473     -82.50210     183.65432        99     s41378n82508w         0         0         0         0  
     100  hru0100                100       0.05000      41.37517     -82.50238     182.20000       100     s41378n82508w         0         0         0         0  
     101  hru0101                101       0.01000      41.37384     -82.48981     185.00000       101     s41378n82508w         0         0         0         0  
     102  hru0102                102       0.06000      41.37317     -82.49548     185.00000       102     s41378n82508w         0         0         0         0  
     103  hru0103                103       0.52000      41.37354     -82.50138     183.82692       103     s41378n82508w         0         0         0         0  
     104  hru0104                104       3.26000      41.37381     -82.49818     184.97546       104     s41378n82508w         0         0         0         0  
     105  hru0105                105      13.08000      41.37303     -82.49972     184.67049       105     s41378n82508w         0         0         0         0  
     106  hru0106                106       2.43000      41.37507     -82.50422     179.91358       106     s41378n82508w         0         0         0         0  
     107  hru0107                107       1.66000      41.37304     -82.49578     185.08434       107     s41378n82508w         0         0         0         0  
     108  hru0108                108       0.05000      41.37570     -82.50618     176.00000       108     s41378n82508w         0         0         0         0  
     109  hru0109                109       1.81000      41.37454     -82.50250     182.44751       109     s41378n82508w         0         0         0         0  
     110  hru0110                110       1.63000      41.37367     -82.50398     184.36810       110     s41378n82508w         0         0         0         0  
     111  hru0111                111       1.32000      41.37374     -82.49937     183.11364       111     s41378n82508w         0         0         0         0  
     112  hru0112                112       0.88000      41.37166     -82.49679     185.09091       112     s41378n82508w         0         0         0         0  
     113  hru0113                113       0.49000      41.37165     -82.49590     185.89796       113     s41378n82508w         0         0         0         0  
     114  hru0114                114       3.53000      41.37365     -82.49463     185.44193       114     s41378n82508w         0         0         0         0  
     115  hru0115                115       0.73000      41.37318     -82.49304     185.19178       115     s41378n82508w         0         0         0         0  
     116  hru0116                116       3.71000      41.37378     -82.49950     184.38544       116     s41378n82508w         0         0         0         0  
     117  hru0117                117       0.08000      41.37525     -82.50349     182.62500       117     s41378n82508w         0         0         0         0  
     118  hru0118                118       1.13000      41.37403     -82.49529     184.92035       118     s41378n82508w         0         0         0         0  
     119  hru0119                119       0.03000      41.37501     -82.50346     179.66667       119     s41378n82508w         0         0         0         0  
     120  hru0120                120       0.38000      41.37341     -82.49062     185.73684       120     s41378n82508w         0         0         0         0  
     121  hru0121                121       1.80000      41.37265     -82.49151     186.08889       121     s41378n82508w         0         0         0         0  
     122  hru0122                122       0.33000      41.37383     -82.49912     183.03030       122     s41378n82508w         0         0         0         0  
     123  hru0123                123       0.02000      41.37212     -82.49665     185.00000       123     s41378n82508w         0         0         0         0  
     124  hru0124                124       0.05000      41.37186     -82.49448     186.40000       124     s41378n82508w         0         0         0         0  
     125  hru0125                125       0.76000      41.37365     -82.49586     185.21053       125     s41378n82508w         0         0         0         0  
     126  hru0126                126       0.18000      41.37489     -82.50275     183.33333       126     s41378n82508w         0         0         0         0  
     127  hru0127                127       1.06000      41.37330     -82.49214     185.17925       127     s41378n82508w         0         0         0         0  
     128  hru0128                128       0.49000      41.37371     -82.49085     185.40816       128     s41378n82508w         0         0         0         0  
     129  hru0129                129       0.07000      41.37319     -82.49105     185.14286       129     s41378n82508w         0         0         0         0  
     130  hru0130                130       0.09000      41.37372     -82.49783     184.22222       130     s41378n82508w         0         0         0         0  
     131  hru0131                131       1.48000      41.37285     -82.49788     184.99324       131     s41378n82508w         0         0         0         0  
     132  hru0132                132       0.02000      41.37572     -82.50631     176.00000       132     s41378n82508w         0         0         0         0  
     133  hru0133                133       0.38000      41.37508     -82.50399     177.89474       133     s41378n82508w         0         0         0         0  
     134  hru0134                134       0.09000      41.37418     -82.49741     184.00000       134     s41378n82508w         0         0         0         0  
     135  hru0135                135       0.09000      41.37434     -82.50128     180.55556       135     s41378n82508w         0         0         0         0  
     136  hru0136                136       0.21000      41.37387     -82.49943     182.14286       136     s41378n82508w         0         0         0         0  
     137  hru0137                137       0.07000      41.37303     -82.49551     184.57143       137     s41378n82508w         0         0         0         0  
     138  hru0138                138       0.05000      41.37284     -82.49487     185.00000       138     s41378n82508w         0         0         0         0  
     139  hru0139                139       0.08000      41.37382     -82.49598     184.00000       139     s41378n82508w         0         0         0         0  
     140  hru0140                140       0.05000      41.37380     -82.49866     182.80000       140     s41378n82508w         0         0         0         0  
     141  hru0141                141       0.04000      41.37402     -82.49665     184.00000       141     s41378n82508w         0         0         0         0  
     142  hru0142                142       0.04000      41.37315     -82.49509     184.50000       142     s41378n82508w         0         0         0         0  
     143  hru0143                143       0.11000      41.37700     -82.51177     177.09091       143     s41378n82508w         0         0         0         0  
     144  hru0144                144       0.04000      41.37630     -82.50991     173.75000       144     s41378n82508w         0         0         0         0  
     145  hru0145                145       0.72000      41.37590     -82.51004     178.65278       145     s41378n82508w         0         0         0         0  
     146  hru0146                146       0.04000      41.37595     -82.50976     182.50000       146     s41378n82508w         0         0         0         0  
     147  hru0147                147       0.29000      41.37672     -82.51242     180.72414       147     s41378n82508w         0         0         0         0  
     148  hru0148                148       0.21000      41.37682     -82.51278     183.61905       148     s41378n82508w         0         0         0         0  
     149  hru0149                149       0.16000      41.37653     -82.51240     176.50000       149     s41378n82508w         0         0         0         0  
     150  hru0150                150       0.05000      41.37672     -82.51326     183.80000       150     s41378n82508w         0         0         0         0  
     151  hru0151                151       0.84000      41.37511     -82.51396     180.16667       151     s41378n82508w         0         0         0         0  
     152  hru0152                152       0.26000      41.37455     -82.51378     175.65385       152     s41378n82508w         0         0         0         0  
     153  hru0153                153       1.20000      41.37364     -82.51493     183.48333       153     s41378n82508w         0         0         0         0  
     154  hru0154                154       0.10000      41.37328     -82.51561     185.70000       154     s41378n82508w         0         0         0         0  
     155  hru0155                155       0.01000      41.37346     -82.51605     186.00000       155     s41378n82508w         0         0         0         0  
     156  hru0156                156       0.21000      41.37324     -82.51590     186.00000       156     s41378n82508w         0         0         0         0  
     157  hru0157                157       0.40000      41.37343     -82.51291     175.65000       157     s41378n82508w         0         0         0         0  
     158  hru0158                158       0.75000      41.37334     -82.51363     179.84000       158     s41378n82508w         0         0         0         0  
     159  hru0159                159       0.18000      41.37349     -82.51401     182.11111       159     s41378n82508w         0         0         0         0  
     160  hru0160                160       0.15000      41.37349     -82.51301     176.93333       160     s41378n82508w         0         0         0         0  
     161  hru0161                161       2.37000      41.37589     -82.52041     184.69198       161     s41378n82508w         0         0         0         0  
     162  hru0162                162       0.10000      41.37626     -82.52101     184.10000       162     s41378n82508w         0         0         0         0  
     163  hru0163                163       0.90000      41.37514     -82.51845     184.32222       163     s41378n82508w         0         0         0         0  
     164  hru0164                164       0.11000      41.37415     -82.51702     177.90909       164     s41378n82508w         0         0         0         0  
     165  hru0165                165       0.34000      41.37405     -82.51693     181.35294       165     s41378n82508w         0         0         0         0  
     166  hru0166                166       0.09000      41.37361     -82.51655     184.55556       166     s41378n82508w         0         0         0         0  
     167  hru0167                167       0.39000      41.37648     -82.52014     185.02564       167     s41378n82508w         0         0         0         0  
     168  hru0168                168       0.15000      41.37479     -82.51803     184.40000       168     s41378n82508w         0         0         0         0  
     169  hru0169                169       0.02000      41.37384     -82.51713     177.50000       169     s41378n82508w         0         0         0         0  
     170  hru0170                170       0.03000      41.37365     -82.51703     182.33333       170     s41378n82508w         0         0         0         0  
     171  hru0171                171       0.16000      41.37354     -82.51659     185.00000       171     s41378n82508w         0         0         0         0  
     172  hru0172                172       0.74000      41.37545     -82.52090     184.95946       172     s41378n82508w         0         0         0         0  
     173  hru0173                173       0.09000      41.37419     -82.51686     176.66667       173     s41378n82508w         0         0         0         0  
     174  hru0174                174       0.04000      41.37419     -82.51673     181.75000       174     s41378n82508w         0         0         0         0  
     175  hru0175                175       0.02000      41.37393     -82.51712     175.50000       175     s41378n82508w         0         0         0         0  
     176  hru0176                176       0.08000      41.37528     -82.50948     184.00000       176     s41378n82508w         0         0         0         0  
     177  hru0177                177       0.57000      41.37493     -82.50980     179.35088       177     s41378n82508w         0         0         0         0  
     178  hru0178                178       0.21000      41.37245     -82.51222     178.19048       178     s41378n82508w         0         0         0         0  
     179  hru0179                179       2.88000      41.37303     -82.50823     184.26042       179     s41378n82508w         0         0         0         0  
     180  hru0180                180       0.09000      41.37446     -82.50929     177.88889       180     s41378n82508w         0         0         0         0  
     181  hru0181                181       0.62000      41.37250     -82.51037     176.33871       181     s41378n82508w         0         0         0         0  