hyd-sed-lte.cha: written by SWAT+ editor v2.0.4 on 2022-01-21 12:22
name                         order            wd            dp           slp           len          mann             k     erod_fact      cov_fact        wd_rto        eq_slp           d50          clay        carbon        dry_bd      side_slp      bed_load           fps           fpn        n_conc        p_conc         p_bio  description
hydcha001                        5      16.70620       0.71692       0.00001       0.01000       0.03300       0.00000       0.00015       0.05000      23.30285       0.00100      12.00000      50.00000       0.04000       1.00000       0.50000        0.0000        1.0000       0.02000       0.10000       0.00000       0.30000
hydcha007                        2       0.69866       0.08638       0.08776       0.08660       0.03300       0.00000       0.00015       0.05000       8.08858       0.00100      12.00000      50.00000       0.04000       1.00000       0.50000        0.0000        1.0000       0.02000       0.10000       0.00000       0.30000
hydcha008                        1       0.44520       0.06396       0.00001       0.31730       0.03300       0.00000       0.00015       0.05000       6.96040       0.00100      12.00000      50.00000       0.04000       1.00000       0.50000        0.0000        1.0000       0.02000       0.10000       0.00000       0.30000
hydcha010                        2       1.12771       0.11885       0.00053       0.17070       0.03300       0.00000       0.00015       0.05000       9.48818       0.00100      12.00000      50.00000       0.04000       1.00000       0.50000        0.0000        1.0000       0.02000       0.10000       0.00000       0.30000
hydcha012                        1       0.38745       0.05830       0.00001       0.05410       0.03300       0.00000       0.00015       0.05000       6.64538       0.00100      12.00000      50.00000       0.04000       1.00000       0.50000        0.0000        1.0000       0.02000       0.10000       0.00000       0.30000
hydcha013                        1       0.44451       0.06390       0.01734       0.37140       0.03300       0.00000       0.00015       0.05000       6.95679       0.00100      12.00000      50.00000       0.04000       1.00000       0.50000        0.0000        1.0000       0.02000       0.10000       0.00000       0.30000
hydcha014                        1       0.87386       0.10027       0.00776       1.27740       0.03300       0.00000       0.00015       0.05000       8.71492       0.00100      12.00000      50.00000       0.04000       1.00000       0.50000        0.0000        1.0000       0.02000       0.10000       0.00000       0.30000
hydcha015                        1       0.53980       0.07273       0.01696       0.46630       0.03300       0.00000       0.00015       0.05000       7.42210       0.00100      12.00000      50.00000       0.04000       1.00000       0.50000        0.0000        1.0000       0.02000       0.10000       0.00000       0.30000
hydcha016                        5      16.37245       0.70734       0.00001       0.06410       0.03300       0.00000       0.00015       0.05000      23.14662       0.00100      12.00000      50.00000       0.04000       1.00000       0.50000        0.0000        1.0000       0.02000       0.10000       0.00000       0.30000
hydcha017                        5      16.35585       0.70686       0.00001       0.15070       0.03300       0.00000       0.00015       0.05000      23.13880       0.00100      12.00000      50.00000       0.04000       1.00000       0.50000        0.0000        1.0000       0.02000       0.10000       0.00000       0.30000
hydcha018                        5      16.33462       0.70625       0.00001       0.21490       0.03300       0.00000       0.00015       0.05000      23.12878       0.00100      12.00000      50.00000       0.04000       1.00000       0.50000        0.0000        1.0000       0.02000       0.10000       0.00000       0.30000
hydcha019                        5      16.21531       0.70280       0.00444       0.33800       0.03300       0.00000       0.00015       0.05000      23.07233       0.00100      12.00000      50.00000       0.04000       1.00000       0.50000        0.0000        1.0000       0.02000       0.10000       0.00000       0.30000
hydcha020                        5      16.04445       0.69786       0.00017       0.46700       0.03300       0.00000       0.00015       0.05000      22.99101       0.00100      12.00000      50.00000       0.04000       1.00000       0.50000        0.0000        1.0000       0.02000       0.10000       0.00000       0.30000
hydcha021                        5      16.01651       0.69705       0.00001       0.09490       0.03300       0.00000       0.00015       0.05000      22.97766       0.00100      12.00000      50.00000       0.04000       1.00000       0.50000        0.0000        1.0000       0.02000       0.10000       0.00000       0.30000
hydcha022                        5      15.91139       0.69399       0.00001       0.27380       0.03300       0.00000       0.00015       0.05000      22.92728       0.00100      12.00000      50.00000       0.04000       1.00000       0.50000        0.0000        1.0000       0.02000       0.10000       0.00000       0.30000
hydcha023                        5      15.90369       0.69377       0.02050       0.04000       0.03300       0.00000       0.00015       0.05000      22.92358       0.00100      12.00000      50.00000       0.04000       1.00000       0.50000        0.0000        1.0000       0.02000       0.10000       0.00000       0.30000
hydcha024                        5      15.07514       0.66946       0.00001       0.99670       0.03300       0.00000       0.00015       0.05000      22.51837       0.00100      12.00000      50.00000       0.04000       1.00000       0.50000        0.0000        1.0000       0.02000       0.10000       0.00000       0.30000
hydcha025                        5      15.00706       0.66744       0.00074       1.68510       0.03300       0.00000       0.00015       0.05000      22.48442       0.00100      12.00000      50.00000       0.04000       1.00000       0.50000        0.0000        1.0000       0.02000       0.10000       0.00000       0.30000
hydcha026                        4       3.60021       0.25769       0.00070       0.71080       0.03300       0.00000       0.00015       0.05000      13.97095       0.00100      12.00000      50.00000       0.04000       1.00000       0.50000        0.0000        1.0000       0.02000       0.10000       0.00000       0.30000
hydcha027                        4       3.37825       0.24699       0.00382       0.33800       0.03300       0.00000       0.00015       0.05000      13.67772       0.00100      12.00000      50.00000       0.04000       1.00000       0.50000        0.0000        1.0000       0.02000       0.10000       0.00000       0.30000
hydcha028                        4       3.24256       0.24033       0.00633       1.59020       0.03300       0.00000       0.00015       0.05000      13.49208       0.00100      12.00000      50.00000       0.04000       1.00000       0.50000        0.0000        1.0000       0.02000       0.10000       0.00000       0.30000
hydcha029                        2       1.39705       0.13710       0.00582       1.03810       0.03300       0.00000       0.00015       0.05000      10.19031       0.00100      12.00000      50.00000       0.04000       1.00000       0.50000        0.0000        1.0000       0.02000       0.10000       0.00000       0.30000
hydcha030                        1       0.82038       0.09614       0.00705       0.99910       0.03300       0.00000       0.00015       0.05000       8.53339       0.00100      12.00000      50.00000       0.04000       1.00000       0.50000        0.0000        1.0000       0.02000       0.10000       0.00000       0.30000
hydcha031                        2       1.13797       0.11957       0.02501       0.22310       0.03300       0.00000       0.00015       0.05000       9.51685       0.00100      12.00000      50.00000       0.04000       1.00000       0.50000        0.0000        1.0000       0.02000       0.10000       0.00000       0.30000
hydcha032                        2       1.03135       0.11198       0.00001       0.13490       0.03300       0.00000       0.00015       0.05000       9.20985       0.00100      12.00000      50.00000       0.04000       1.00000       0.50000        0.0000        1.0000       0.02000       0.10000       0.00000       0.30000
hydcha033                        2       0.98622       0.10869       0.00504       1.38850       0.03300       0.00000       0.00015       0.05000       9.07348       0.00100      12.00000      50.00000       0.04000       1.00000       0.50000        0.0000        1.0000       0.02000       0.10000       0.00000       0.30000
hydcha034                        1       0.55583       0.07416       0.01061       0.56940       0.03300       0.00000       0.00015       0.05000       7.49485       0.00100      12.00000      50.00000       0.04000       1.00000       0.50000        0.0000        1.0000       0.02000       0.10000       0.00000       0.30000
hydcha035                        1       0.58961       0.07714       0.02269       0.38380       0.03300       0.00000       0.00015       0.05000       7.64371       0.00100      12.00000      50.00000       0.04000       1.00000       0.50000        0.0000        1.0000       0.02000       0.10000       0.00000       0.30000
hydcha036                        1       0.35476       0.05498       0.00001       0.01410       0.03300       0.00000       0.00015       0.05000       6.45301       0.00100      12.00000      50.00000       0.04000       1.00000       0.50000        0.0000        1.0000       0.02000       0.10000       0.00000       0.30000
hydcha037                        1       0.72948       0.08890       0.01389       0.84080       0.03300       0.00000       0.00015       0.05000       8.20581       0.00100      12.00000      50.00000       0.04000       1.00000       0.50000        0.0000        1.0000       0.02000       0.10000       0.00000       0.30000
hydcha038                        1       0.38693       0.05825       0.00001       0.11830       0.03300       0.00000       0.00015       0.05000       6.64242       0.00100      12.00000      50.00000       0.04000       1.00000       0.50000        0.0000        1.0000       0.02000       0.10000       0.00000       0.30000
hydcha039                        1       0.33022       0.05241       0.00001       0.07070       0.03300       0.00000       0.00015       0.05000       6.30061       0.00100      12.00000      50.00000       0.04000       1.00000       0.50000        0.0000        1.0000       0.02000       0.10000       0.00000       0.30000
hydcha040                        1       0.39431       0.05899       0.03160       0.12660       0.03300       0.00000       0.00015       0.05000       6.68439       0.00100      12.00000      50.00000       0.04000       1.00000       0.50000        0.0000        1.0000       0.02000       0.10000       0.00000       0.30000
hydcha041                        1       0.34553       0.05402       0.02465       0.22560       0.03300       0.00000       0.00015       0.05000       6.39654       0.00100      12.00000      50.00000       0.04000       1.00000       0.50000        0.0000        1.0000       0.02000       0.10000       0.00000       0.30000
hydcha042                        1       0.33442       0.05285       0.01667       0.06240       0.03300       0.00000       0.00015       0.05000       6.32724       0.00100      12.00000      50.00000       0.04000       1.00000       0.50000        0.0000        1.0000       0.02000       0.10000       0.00000       0.30000
hydcha043                        1       0.88216       0.10091       0.00907       0.99250       0.03300       0.00000       0.00015       0.05000       8.74244       0.00100      12.00000      50.00000       0.04000       1.00000       0.50000        0.0000        1.0000       0.02000       0.10000       0.00000       0.30000
hydcha044                        1       0.33442       0.05285       0.00719       0.08070       0.03300       0.00000       0.00015       0.05000       6.32724       0.00100      12.00000      50.00000       0.04000       1.00000       0.50000        0.0000        1.0000       0.02000       0.10000       0.00000       0.30000
hydcha045                        5      14.89121       0.66400       0.02283       0.22730       0.03300       0.00000       0.00015       0.05000      22.42641       0.00100      12.00000      50.00000       0.04000       1.00000       0.50000        0.0000        1.0000       0.02000       0.10000       0.00000       0.30000
hydcha046                        5      14.86728       0.66329       0.01003       0.20140       0.03300       0.00000       0.00015       0.05000      22.41439       0.00100      12.00000      50.00000       0.04000       1.00000       0.50000        0.0000        1.0000       0.02000       0.10000       0.00000       0.30000
hydcha047                        4       8.93490       0.47236       0.00001       0.50940       0.03300       0.00000       0.00015       0.05000      18.91529       0.00100      12.00000      50.00000       0.04000       1.00000       0.50000        0.0000        1.0000       0.02000       0.10000       0.00000       0.30000
hydcha048                        4       8.85491       0.46954       0.00001       0.38530       0.03300       0.00000       0.00015       0.05000      18.85867       0.00100      12.00000      50.00000       0.04000       1.00000       0.50000        0.0000        1.0000       0.02000       0.10000       0.00000       0.30000
hydcha049                        4       8.79580       0.46745       0.00001       0.16730       0.03300       0.00000       0.00015       0.05000      18.81662       0.00100      12.00000      50.00000       0.04000       1.00000       0.50000        0.0000        1.0000       0.02000       0.10000       0.00000       0.30000
hydcha050                        4       7.53751       0.42173       0.00001       0.23490       0.03300       0.00000       0.00015       0.05000      17.87280       0.00100      12.00000      50.00000       0.04000       1.00000       0.50000        0.0000        1.0000       0.02000       0.10000       0.00000       0.30000
hydcha051                        4       7.49547       0.42016       0.00001       0.65180       0.03300       0.00000       0.00015       0.05000      17.83950       0.00100      12.00000      50.00000       0.04000       1.00000       0.50000        0.0000        1.0000       0.02000       0.10000       0.00000       0.30000
hydcha052                        4      10.62137       0.53008       0.00001       0.67870       0.03300       0.00000       0.00015       0.05000      20.03749       0.00100      12.00000      50.00000       0.04000       1.00000       0.50000        0.0000        1.0000       0.02000       0.10000       0.00000       0.30000
hydcha053                        4      10.41445       0.52317       0.00001       0.02000       0.03300       0.00000       0.00015       0.05000      19.90651       0.00100      12.00000      50.00000       0.04000       1.00000       0.50000        0.0000        1.0000       0.02000       0.10000       0.00000       0.30000
hydcha054                        4      10.36982       0.52167       0.00001       0.42460       0.03300       0.00000       0.00015       0.05000      19.87804       0.00100      12.00000      50.00000       0.04000       1.00000       0.50000        0.0000        1.0000       0.02000       0.10000       0.00000       0.30000
hydcha055                        4       9.97989       0.50851       0.00245       0.70080       0.03300       0.00000       0.00015       0.05000      19.62569       0.00100      12.00000      50.00000       0.04000       1.00000       0.50000        0.0000        1.0000       0.02000       0.10000       0.00000       0.30000
hydcha056                        3       1.95169       0.17133       0.00001       0.28970       0.03300       0.00000       0.00015       0.05000      11.39166       0.00100      12.00000      50.00000       0.04000       1.00000       0.50000        0.0000        1.0000       0.02000       0.10000       0.00000       0.30000
hydcha057                        3       1.86792       0.16639       0.00342       0.68180       0.03300       0.00000       0.00015       0.05000      11.22627       0.00100      12.00000      50.00000       0.04000       1.00000       0.50000        0.0000        1.0000       0.02000       0.10000       0.00000       0.30000
hydcha058                        3       1.60469       0.15036       0.00478       0.20900       0.03300       0.00000       0.00015       0.05000      10.67202       0.00100      12.00000      50.00000       0.04000       1.00000       0.50000        0.0000        1.0000       0.02000       0.10000       0.00000       0.30000
hydcha059                        2       1.31163       0.13145       0.00780       0.89740       0.03300       0.00000       0.00015       0.05000       9.97823       0.00100      12.00000      50.00000       0.04000       1.00000       0.50000        0.0000        1.0000       0.02000       0.10000       0.00000       0.30000
hydcha060                        3       3.59314       0.25736       0.00001       0.48700       0.03300       0.00000       0.00015       0.05000      13.96180       0.00100      12.00000      50.00000       0.04000       1.00000       0.50000        0.0000        1.0000       0.02000       0.10000       0.00000       0.30000
hydcha061                        3       3.46578       0.25124       0.00001       0.36870       0.03300       0.00000       0.00015       0.05000      13.79484       0.00100      12.00000      50.00000       0.04000       1.00000       0.50000        0.0000        1.0000       0.02000       0.10000       0.00000       0.30000
hydcha062                        3       3.04143       0.23029       0.00087       0.82770       0.03300       0.00000       0.00015       0.05000      13.20714       0.00100      12.00000      50.00000       0.04000       1.00000       0.50000        0.0000        1.0000       0.02000       0.10000       0.00000       0.30000
hydcha063                        1       0.96496       0.10712       0.02203       1.90650       0.03300       0.00000       0.00015       0.05000       9.00780       0.00100      12.00000      50.00000       0.04000       1.00000       0.50000        0.0000        1.0000       0.02000       0.10000       0.00000       0.30000
hydcha064                        3       2.00443       0.17440       0.00001       0.57530       0.03300       0.00000       0.00015       0.05000      11.49335       0.00100      12.00000      50.00000       0.04000       1.00000       0.50000        0.0000        1.0000       0.02000       0.10000       0.00000       0.30000
hydcha065                        2       1.53391       0.14591       0.00001       0.46770       0.03300       0.00000       0.00015       0.05000      10.51276       0.00100      12.00000      50.00000       0.04000       1.00000       0.50000        0.0000        1.0000       0.02000       0.10000       0.00000       0.30000
hydcha066                        2       1.22056       0.12529       0.00322       0.10240       0.03300       0.00000       0.00015       0.05000       9.74172       0.00100      12.00000      50.00000       0.04000       1.00000       0.50000        0.0000        1.0000       0.02000       0.10000       0.00000       0.30000
hydcha067                        2       1.00827       0.11031       0.00342       0.11410       0.03300       0.00000       0.00015       0.05000       9.14061       0.00100      12.00000      50.00000       0.04000       1.00000       0.50000        0.0000        1.0000       0.02000       0.10000       0.00000       0.30000
hydcha068                        2       1.17493       0.12215       0.00238       0.70910       0.03300       0.00000       0.00015       0.05000       9.61880       0.00100      12.00000      50.00000       0.04000       1.00000       0.50000        0.0000        1.0000       0.02000       0.10000       0.00000       0.30000
hydcha069                        2       1.22104       0.12532       0.00200       0.25970       0.03300       0.00000       0.00015       0.05000       9.74301       0.00100      12.00000      50.00000       0.04000       1.00000       0.50000        0.0000        1.0000       0.02000       0.10000       0.00000       0.30000
hydcha070                        3       1.89787       0.16816       0.00001       0.37560       0.03300       0.00000       0.00015       0.05000      11.28596       0.00100      12.00000      50.00000       0.04000       1.00000       0.50000        0.0000        1.0000       0.02000       0.10000       0.00000       0.30000
hydcha071                        3       1.69269       0.15581       0.00567       0.60530       0.03300       0.00000       0.00015       0.05000      10.86364       0.00100      12.00000      50.00000       0.04000       1.00000       0.50000        0.0000        1.0000       0.02000       0.10000       0.00000       0.30000
hydcha072                        1       0.68676       0.08539       0.00871       0.82670       0.03300       0.00000       0.00015       0.05000       8.04240       0.00100      12.00000      50.00000       0.04000       1.00000       0.50000        0.0000        1.0000       0.02000       0.10000       0.00000       0.30000
hydcha073                        1       0.67706       0.08459       0.01131       1.06400       0.03300       0.00000       0.00015       0.05000       8.00432       0.00100      12.00000      50.00000       0.04000       1.00000       0.50000        0.0000        1.0000       0.02000       0.10000       0.00000       0.30000
hydcha074                        1       0.49672       0.06881       0.01172       0.51040       0.03300       0.00000       0.00015       0.05000       7.21917       0.00100      12.00000      50.00000       0.04000       1.00000       0.50000        0.0000        1.0000       0.02000       0.10000       0.00000       0.30000
hydcha075                        1       0.82518       0.09651       0.01425       1.51680       0.03300       0.00000       0.00015       0.05000       8.55001       0.00100      12.00000      50.00000       0.04000       1.00000       0.50000        0.0000        1.0000       0.02000       0.10000       0.00000       0.30000
hydcha076                        2       0.72483       0.08852       0.00001       0.03830       0.03300       0.00000       0.00015       0.05000       8.18833       0.00100      12.00000      50.00000       0.04000       1.00000       0.50000        0.0000        1.0000       0.02000       0.10000       0.00000       0.30000
hydcha077                        2       0.83670       0.09741       0.00001       0.17970       0.03300       0.00000       0.00015       0.05000       8.58961       0.00100      12.00000      50.00000       0.04000       1.00000       0.50000        0.0000        1.0000       0.02000       0.10000       0.00000       0.30000
hydcha078                        2       0.88674       0.10125       0.01009       0.61430       0.03300       0.00000       0.00015       0.05000       8.75754       0.00100      12.00000      50.00000       0.04000       1.00000       0.50000        0.0000        1.0000       0.02000       0.10000       0.00000       0.30000
hydcha079                        1       0.47370       0.06666       0.00302       0.32800       0.03300       0.00000       0.00015       0.05000       7.10586       0.00100      12.00000      50.00000       0.04000       1.00000       0.50000        0.0000        1.0000       0.02000       0.10000       0.00000       0.30000
hydcha080                        1       0.72301       0.08837       0.01182       0.67940       0.03300       0.00000       0.00015       0.05000       8.18147       0.00100      12.00000      50.00000       0.04000       1.00000       0.50000        0.0000        1.0000       0.02000       0.10000       0.00000       0.30000
hydcha081                        1       0.53243       0.07207       0.00887       0.52870       0.03300       0.00000       0.00015       0.05000       7.38818       0.00100      12.00000      50.00000       0.04000       1.00000       0.50000        0.0000        1.0000       0.02000       0.10000       0.00000       0.30000
hydcha082                        1       0.61798       0.07959       0.04646       0.83980       0.03300       0.00000       0.00015       0.05000       7.76442       0.00100      12.00000      50.00000       0.04000       1.00000       0.50000        0.0000        1.0000       0.02000       0.10000       0.00000       0.30000
hydcha083                        1       0.36312       0.05584       0.00001       0.19970       0.03300       0.00000       0.00015       0.05000       6.50327       0.00100      12.00000      50.00000       0.04000       1.00000       0.50000        0.0000        1.0000       0.02000       0.10000       0.00000       0.30000
hydcha084                        1       0.45767       0.06515       0.00001       0.29380       0.03300       0.00000       0.00015       0.05000       7.02478       0.00100      12.00000      50.00000       0.04000       1.00000       0.50000        0.0000        1.0000       0.02000       0.10000       0.00000       0.30000
hydcha085                        1       0.54449       0.07315       0.01090       1.10120       0.03300       0.00000       0.00015       0.05000       7.44353       0.00100      12.00000      50.00000       0.04000       1.00000       0.50000        0.0000        1.0000       0.02000       0.10000       0.00000       0.30000
hydcha086                        1       0.40345       0.05990       0.01436       0.28970       0.03300       0.00000       0.00015       0.05000       6.73564       0.00100      12.00000      50.00000       0.04000       1.00000       0.50000        0.0000        1.0000       0.02000       0.10000       0.00000       0.30000
hydcha087                        1       0.44535       0.06398       0.00767       0.47460       0.03300       0.00000       0.00015       0.05000       6.96121       0.00100      12.00000      50.00000       0.04000       1.00000       0.50000        0.0000        1.0000       0.02000       0.10000       0.00000       0.30000
hydcha088                        1       0.45828       0.06521       0.00001       0.27380       0.03300       0.00000       0.00015       0.05000       7.02794       0.00100      12.00000      50.00000       0.04000       1.00000       0.50000        0.0000        1.0000       0.02000       0.10000       0.00000       0.30000
hydcha089                        1       0.54242       0.07296       0.00862       0.70430       0.03300       0.00000       0.00015       0.05000       7.43411       0.00100      12.00000      50.00000       0.04000       1.00000       0.50000        0.0000        1.0000       0.02000       0.10000       0.00000       0.30000
hydcha090                        1       0.52443       0.07134       0.00983       0.81400       0.03300       0.00000       0.00015       0.05000       7.35100       0.00100      12.00000      50.00000       0.04000       1.00000       0.50000        0.0000        1.0000       0.02000       0.10000       0.00000       0.30000
hydcha091                        1       0.63166       0.08076       0.00738       0.31560       0.03300       0.00000       0.00015       0.05000       7.82129       0.00100      12.00000      50.00000       0.04000       1.00000       0.50000        0.0000        1.0000       0.02000       0.10000       0.00000       0.30000
hydcha092                        1       0.66075       0.08322       0.00351       0.37870       0.03300       0.00000       0.00015       0.05000       7.93953       0.00100      12.00000      50.00000       0.04000       1.00000       0.50000        0.0000        1.0000       0.02000       0.10000       0.00000       0.30000
hydcha093                        1       0.37312       0.05686       0.00798       0.16660       0.03300       0.00000       0.00015       0.05000       6.56243       0.00100      12.00000      50.00000       0.04000       1.00000       0.50000        0.0000        1.0000       0.02000       0.10000       0.00000       0.30000
hydcha094                        1       0.40042       0.05960       0.00001       0.04240       0.03300       0.00000       0.00015       0.05000       6.71873       0.00100      12.00000      50.00000       0.04000       1.00000       0.50000        0.0000        1.0000       0.02000       0.10000       0.00000       0.30000
hydcha095                        1       0.53327       0.07214       0.03382       0.35280       0.03300       0.00000       0.00015       0.05000       7.39205       0.00100      12.00000      50.00000       0.04000       1.00000       0.50000        0.0000        1.0000       0.02000       0.10000       0.00000       0.30000
hydcha096                        1       0.49496       0.06864       0.00437       0.22900       0.03300       0.00000       0.00015       0.05000       7.21065       0.00100      12.00000      50.00000       0.04000       1.00000       0.50000        0.0000        1.0000       0.02000       0.10000       0.00000       0.30000