initial.aqu: written by SWAT+ editor v2.0.4 on 2022-01-21 12:23
name                       org_min              pest              path              hmet              salt  description       
initaqu1                   no_init              null              null              null              null  null              
