ls_unit.ele: written by SWAT+ editor v2.0.4 on 2022-01-21 12:23
      id  name                   obj_typ  obj_typ_no      bsn_frac      sub_frac      reg_frac  
       1  hru0001                    hru           1     2.8171E-6       1.00000       0.00000  
       2  hru0002                    hru           2     1.3522E-4       0.40167       0.00000  
       3  hru0003                    hru           3     7.0427E-6       0.02092       0.00000  
       4  hru0004                    hru           4     4.6482E-5       0.13808       0.00000  
       5  hru0005                    hru           5     4.2256E-5       0.12552       0.00000  
       6  hru0006                    hru           6     4.9299E-5       0.14644       0.00000  
       7  hru0007                    hru           7     5.6342E-5       0.16736       0.00000  
       8  hru0008                    hru           8     1.2254E-4       0.11741       0.00000  
       9  hru0009                    hru           9     1.0282E-4       0.09852       0.00000  
      10  hru0010                    hru          10     1.9579E-4       0.18758       0.00000  
      11  hru0011                    hru          11     1.0987E-4       0.10526       0.00000  
      12  hru0012                    hru          12     2.4509E-4       0.23482       0.00000  
      13  hru0013                    hru          13     1.1268E-5       0.01080       0.00000  
      14  hru0014                    hru          14     2.1128E-5       0.02024       0.00000  
      15  hru0015                    hru          15     2.5354E-5       0.02429       0.00000  
      16  hru0016                    hru          16     2.0987E-4       0.20108       0.00000  
      17  hru0017                    hru          17     1.8311E-5       0.30233       0.00000  
      18  hru0018                    hru          18     1.8311E-5       0.30233       0.00000  
      19  hru0019                    hru          19     1.6903E-5       0.27907       0.00000  
      20  hru0020                    hru          20     4.2256E-6       0.06977       0.00000  
      21  hru0021                    hru          21     2.8171E-6       0.04651       0.00000  
      22  hru0022                    hru          22     2.9580E-5       0.00996       0.00000  
      23  hru0023                    hru          23     1.4085E-5       0.00474       0.00000  
      24  hru0024                    hru          24     7.0427E-6       0.00237       0.00000  
      25  hru0025                    hru          25     1.9720E-5       0.00664       0.00000  
      26  hru0026                    hru          26     5.3525E-5       0.01803       0.00000  
      27  hru0027                    hru          27     2.8171E-6       0.00095       0.00000  
      28  hru0028                    hru          28     4.2116E-4       0.14184       0.00000  
      29  hru0029                    hru          29     1.0395E-3       0.35009       0.00000  
      30  hru0030                    hru          30     2.0847E-4       0.07021       0.00000  
      31  hru0031                    hru          31     8.4513E-6       0.00285       0.00000  
      32  hru0032                    hru          32     3.0002E-4       0.10104       0.00000  
      33  hru0033                    hru          33     3.1692E-4       0.10674       0.00000  
      34  hru0034                    hru          34     4.6482E-4       0.15655       0.00000  
      35  hru0035                    hru          35     5.6342E-5       0.01898       0.00000  
      36  hru0036                    hru          36     2.6762E-5       0.00901       0.00000  
      37  hru0037                    hru          37     1.9156E-4       0.36757       0.00000  
      38  hru0038                    hru          38     1.6903E-5       0.03243       0.00000  
      39  hru0039                    hru          39     1.6903E-5       0.03243       0.00000  
      40  hru0040                    hru          40     7.0427E-6       0.01351       0.00000  
      41  hru0041                    hru          41     7.0427E-5       0.13514       0.00000  
      42  hru0042                    hru          42     1.3663E-4       0.26216       0.00000  
      43  hru0043                    hru          43     8.1696E-5       0.15676       0.00000  
      44  hru0044                    hru          44     2.5354E-5       0.07200       0.00000  
      45  hru0045                    hru          45     2.1269E-4       0.60400       0.00000  
      46  hru0046                    hru          46     4.6482E-5       0.13200       0.00000  
      47  hru0047                    hru          47     6.7610E-5       0.19200       0.00000  
      48  hru0048                    hru          48     1.1268E-4       0.03477       0.00000  
      49  hru0049                    hru          49     1.3100E-4       0.04042       0.00000  
      50  hru0050                    hru          50     5.0004E-4       0.15428       0.00000  
      51  hru0051                    hru          51     1.3100E-4       0.04042       0.00000  
      52  hru0052                    hru          52     1.4085E-5       0.00435       0.00000  
      53  hru0053                    hru          53     2.5354E-5       0.00782       0.00000  
      54  hru0054                    hru          54     1.8311E-5       0.00565       0.00000  
      55  hru0055                    hru          55     2.8171E-6       0.00087       0.00000  
      56  hru0056                    hru          56     1.5494E-5       0.00478       0.00000  
      57  hru0057                    hru          57     2.2959E-4       0.07084       0.00000  
      58  hru0058                    hru          58     3.6763E-4       0.11343       0.00000  
      59  hru0059                    hru          59     1.3100E-4       0.04042       0.00000  
      60  hru0060                    hru          60     2.0001E-4       0.06171       0.00000  
      61  hru0061                    hru          61     1.8311E-4       0.05650       0.00000  
      62  hru0062                    hru          62     1.1268E-5       0.00348       0.00000  
      63  hru0063                    hru          63     1.4085E-6       0.00043       0.00000  
      64  hru0064                    hru          64     6.1272E-4       0.18905       0.00000  
      65  hru0065                    hru          65     2.0142E-4       0.06215       0.00000  
      66  hru0066                    hru          66     2.6340E-4       0.08127       0.00000  
      67  hru0067                    hru          67     1.1268E-5       0.00348       0.00000  
      68  hru0068                    hru          68     6.4793E-5       0.01999       0.00000  
      69  hru0069                    hru          69     1.2677E-5       0.00391       0.00000  
      70  hru0070                    hru          70     1.4085E-6       0.02500       0.00000  
      71  hru0071                    hru          71     2.8171E-6       0.05000       0.00000  
      72  hru0072                    hru          72     9.8598E-6       0.17500       0.00000  
      73  hru0073                    hru          73     2.8171E-6       0.05000       0.00000  
      74  hru0074                    hru          74     2.5354E-5       0.45000       0.00000  
      75  hru0075                    hru          75     8.4513E-6       0.15000       0.00000  
      76  hru0076                    hru          76     5.6342E-6       0.10000       0.00000  
      77  hru0077                    hru          77     2.1128E-5       0.01880       0.00000  
      78  hru0078                    hru          78     2.1128E-5       0.01880       0.00000  
      79  hru0079                    hru          79     9.8598E-6       0.00877       0.00000  
      80  hru0080                    hru          80     5.9582E-4       0.53008       0.00000  
      81  hru0081                    hru          81     2.1128E-4       0.18797       0.00000  
      82  hru0082                    hru          82     2.3523E-4       0.20927       0.00000  
      83  hru0083                    hru          83     8.4513E-6       0.00752       0.00000  
      84  hru0084                    hru          84     2.1128E-5       0.01880       0.00000  
      85  hru0085                    hru          85     2.2537E-5       0.08649       0.00000  
      86  hru0086                    hru          86     1.3240E-4       0.50811       0.00000  
      87  hru0087                    hru          87     7.1836E-5       0.27568       0.00000  
      88  hru0088                    hru          88     3.3805E-5       0.12973       0.00000  
      89  hru0089                    hru          89     8.5922E-5       0.15136       0.00000  
      90  hru0090                    hru          90     2.1269E-4       0.37469       0.00000  
      91  hru0091                    hru          91     2.1410E-4       0.37717       0.00000  
      92  hru0092                    hru          92     5.4933E-5       0.09677       0.00000  
      93  hru0093                    hru          93     3.2397E-5       0.92000       0.00000  
      94  hru0094                    hru          94     2.8171E-6       0.08000       0.00000  
      95  hru0095                    hru          95     3.3242E-4       0.04616       0.00000  
      96  hru0096                    hru          96     1.4367E-4       0.01995       0.00000  
      97  hru0097                    hru          97     4.0003E-4       0.05554       0.00000  
      98  hru0098                    hru          98     1.3100E-4       0.01819       0.00000  
      99  hru0099                    hru          99     1.1409E-4       0.01584       0.00000  
     100  hru0100                    hru         100     7.0427E-6       0.00098       0.00000  
     101  hru0101                    hru         101     1.4085E-6       0.00020       0.00000  
     102  hru0102                    hru         102     8.4513E-6       0.00117       0.00000  
     103  hru0103                    hru         103     7.3245E-5       0.01017       0.00000  
     104  hru0104                    hru         104     4.5919E-4       0.06376       0.00000  
     105  hru0105                    hru         105     1.8424E-3       0.25582       0.00000  
     106  hru0106                    hru         106     3.4228E-4       0.04753       0.00000  
     107  hru0107                    hru         107     2.3382E-4       0.03247       0.00000  
     108  hru0108                    hru         108     7.0427E-6       0.00098       0.00000  
     109  hru0109                    hru         109     2.5495E-4       0.03540       0.00000  
     110  hru0110                    hru         110     2.2959E-4       0.03188       0.00000  
     111  hru0111                    hru         111     1.8593E-4       0.02582       0.00000  
     112  hru0112                    hru         112     1.2395E-4       0.01721       0.00000  
     113  hru0113                    hru         113     6.9019E-5       0.00958       0.00000  
     114  hru0114                    hru         114     4.9722E-4       0.06904       0.00000  
     115  hru0115                    hru         115     1.0282E-4       0.01428       0.00000  
     116  hru0116                    hru         116     5.2257E-4       0.07256       0.00000  
     117  hru0117                    hru         117     1.1268E-5       0.00156       0.00000  
     118  hru0118                    hru         118     1.5917E-4       0.02210       0.00000  
     119  hru0119                    hru         119     4.2256E-6       0.00059       0.00000  
     120  hru0120                    hru         120     5.3525E-5       0.00743       0.00000  
     121  hru0121                    hru         121     2.5354E-4       0.03520       0.00000  
     122  hru0122                    hru         122     4.6482E-5       0.00645       0.00000  
     123  hru0123                    hru         123     2.8171E-6       0.00039       0.00000  
     124  hru0124                    hru         124     7.0427E-6       0.00098       0.00000  
     125  hru0125                    hru         125     1.0705E-4       0.01486       0.00000  
     126  hru0126                    hru         126     2.5354E-5       0.00352       0.00000  
     127  hru0127                    hru         127     1.4931E-4       0.02073       0.00000  
     128  hru0128                    hru         128     6.9019E-5       0.00958       0.00000  
     129  hru0129                    hru         129     9.8598E-6       0.00137       0.00000  
     130  hru0130                    hru         130     1.2677E-5       0.00176       0.00000  
     131  hru0131                    hru         131     2.0847E-4       0.02895       0.00000  
     132  hru0132                    hru         132     2.8171E-6       0.01786       0.00000  
     133  hru0133                    hru         133     5.3525E-5       0.33929       0.00000  
     134  hru0134                    hru         134     1.2677E-5       0.08036       0.00000  
     135  hru0135                    hru         135     1.2677E-5       0.08036       0.00000  
     136  hru0136                    hru         136     2.9580E-5       0.18750       0.00000  
     137  hru0137                    hru         137     9.8598E-6       0.06250       0.00000  
     138  hru0138                    hru         138     7.0427E-6       0.04464       0.00000  
     139  hru0139                    hru         139     1.1268E-5       0.07143       0.00000  
     140  hru0140                    hru         140     7.0427E-6       0.04464       0.00000  
     141  hru0141                    hru         141     5.6342E-6       0.03571       0.00000  
     142  hru0142                    hru         142     5.6342E-6       0.03571       0.00000  
     143  hru0143                    hru         143     1.5494E-5       0.12088       0.00000  
     144  hru0144                    hru         144     5.6342E-6       0.04396       0.00000  
     145  hru0145                    hru         145     1.0142E-4       0.79121       0.00000  
     146  hru0146                    hru         146     5.6342E-6       0.04396       0.00000  
     147  hru0147                    hru         147     4.0848E-5       0.43939       0.00000  
     148  hru0148                    hru         148     2.9580E-5       0.31818       0.00000  
     149  hru0149                    hru         149     2.2537E-5       0.24242       0.00000  
     150  hru0150                    hru         150     7.0427E-6       0.01873       0.00000  
     151  hru0151                    hru         151     1.1832E-4       0.31461       0.00000  
     152  hru0152                    hru         152     3.6622E-5       0.09738       0.00000  
     153  hru0153                    hru         153     1.6903E-4       0.44944       0.00000  
     154  hru0154                    hru         154     1.4085E-5       0.03745       0.00000  
     155  hru0155                    hru         155     1.4085E-6       0.00375       0.00000  
     156  hru0156                    hru         156     2.9580E-5       0.07865       0.00000  
     157  hru0157                    hru         157     5.6342E-5       0.27027       0.00000  
     158  hru0158                    hru         158     1.0564E-4       0.50676       0.00000  
     159  hru0159                    hru         159     2.5354E-5       0.12162       0.00000  
     160  hru0160                    hru         160     2.1128E-5       0.10135       0.00000  
     161  hru0161                    hru         161     3.3383E-4       0.43889       0.00000  
     162  hru0162                    hru         162     1.4085E-5       0.01852       0.00000  
     163  hru0163                    hru         163     1.2677E-4       0.16667       0.00000  
     164  hru0164                    hru         164     1.5494E-5       0.02037       0.00000  
     165  hru0165                    hru         165     4.7891E-5       0.06296       0.00000  
     166  hru0166                    hru         166     1.2677E-5       0.01667       0.00000  
     167  hru0167                    hru         167     5.4933E-5       0.07222       0.00000  
     168  hru0168                    hru         168     2.1128E-5       0.02778       0.00000  
     169  hru0169                    hru         169     2.8171E-6       0.00370       0.00000  
     170  hru0170                    hru         170     4.2256E-6       0.00556       0.00000  
     171  hru0171                    hru         171     2.2537E-5       0.02963       0.00000  
     172  hru0172                    hru         172     1.0423E-4       0.13704       0.00000  
     173  hru0173                    hru         173     1.2677E-5       0.60000       0.00000  
     174  hru0174                    hru         174     5.6342E-6       0.26667       0.00000  
     175  hru0175                    hru         175     2.8171E-6       0.13333       0.00000  
     176  hru0176                    hru         176     1.1268E-5       0.09302       0.00000  
     177  hru0177                    hru         177     8.0287E-5       0.66279       0.00000  
     178  hru0178                    hru         178     2.9580E-5       0.24419       0.00000  
     179  hru0179                    hru         179     4.0566E-4       0.41739       0.00000  
     180  hru0180                    hru         180     1.2677E-5       0.01304       0.00000  
     181  hru0181                    hru         181     8.7330E-5       0.08986       0.00000  
     182  hru0182                    hru         182     3.6763E-4       0.37826       0.00000  
     183  hru0183                    hru         183     9.8598E-5       0.10145       0.00000  
     184  hru0184                    hru         184     1.2015E-3       0.51355       0.00000  
     185  hru0185                    hru         185     1.2395E-4       0.05298       0.00000  
     186  hru0186                    hru         186     2.9861E-4       0.12763       0.00000  
     187  hru0187                    hru         187     6.6202E-4       0.28296       0.00000  
     188  hru0188                    hru         188     5.0708E-5       0.02167       0.00000  
     189  hru0189                    hru         189     2.8171E-6       0.00120       0.00000  
     190  hru0190                    hru         190     2.6762E-5       0.55882       0.00000  
     191  hru0191                    hru         191     1.4085E-6       0.02941       0.00000  
     192  hru0192                    hru         192     1.9720E-5       0.41176       0.00000  
     193  hru0193                    hru         193     8.4513E-6       0.00447       0.00000  
     194  hru0194                    hru         194     7.3104E-4       0.38674       0.00000  
     195  hru0195                    hru         195     8.5922E-5       0.04545       0.00000  
     196  hru0196                    hru         196     2.7044E-4       0.14307       0.00000  
     197  hru0197                    hru         197     4.9299E-5       0.02608       0.00000  
     198  hru0198                    hru         198     6.3385E-5       0.03353       0.00000  
     199  hru0199                    hru         199     1.0001E-4       0.05291       0.00000  
     200  hru0200                    hru         200     1.1268E-4       0.05961       0.00000  
     201  hru0201                    hru         201     1.4085E-6       0.00075       0.00000  
     202  hru0202                    hru         202     1.6903E-5       0.00894       0.00000  
     203  hru0203                    hru         203     1.9720E-5       0.01043       0.00000  
     204  hru0204                    hru         204     1.4085E-6       0.00075       0.00000  
     205  hru0205                    hru         205     3.0002E-4       0.15872       0.00000  
     206  hru0206                    hru         206     6.7610E-5       0.03577       0.00000  
     207  hru0207                    hru         207     6.1976E-5       0.03279       0.00000  
     208  hru0208                    hru         208     4.2256E-6       0.60000       0.00000  
     209  hru0209                    hru         209     1.4085E-6       0.20000       0.00000  
     210  hru0210                    hru         210     1.4085E-6       0.20000       0.00000  
     211  hru0211                    hru         211     5.6342E-6       0.00240       0.00000  
     212  hru0212                    hru         212     2.8171E-6       0.00120       0.00000  
     213  hru0213                    hru         213     1.4085E-6       0.00060       0.00000  
     214  hru0214                    hru         214     1.9720E-5       0.00838       0.00000  
     215  hru0215                    hru         215     2.8594E-4       0.12156       0.00000  
     216  hru0216                    hru         216     8.4513E-6       0.00359       0.00000  
     217  hru0217                    hru         217     2.9580E-5       0.01257       0.00000  
     218  hru0218                    hru         218     1.8734E-4       0.07964       0.00000  
     219  hru0219                    hru         219     3.2256E-4       0.13713       0.00000  
     220  hru0220                    hru         220     2.4227E-4       0.10299       0.00000  
     221  hru0221                    hru         221     2.2537E-5       0.00958       0.00000  
     222  hru0222                    hru         222     1.4085E-6       0.00060       0.00000  
     223  hru0223                    hru         223     8.8034E-4       0.37425       0.00000  
     224  hru0224                    hru         224     8.7330E-5       0.03713       0.00000  
     225  hru0225                    hru         225     1.4226E-4       0.06048       0.00000  
     226  hru0226                    hru         226     5.0708E-5       0.02156       0.00000  
     227  hru0227                    hru         227     2.2537E-5       0.00958       0.00000  
     228  hru0228                    hru         228     3.9439E-5       0.01677       0.00000  
     229  hru0229                    hru         229     4.2256E-6       0.10714       0.00000  
     230  hru0230                    hru         230     3.5214E-5       0.89286       0.00000  
     231  hru0231                    hru         231     1.8311E-5       0.40625       0.00000  
     232  hru0232                    hru         232     1.6903E-5       0.37500       0.00000  
     233  hru0233                    hru         233     9.8598E-6       0.21875       0.00000  
     234  hru0234                    hru         234     6.9019E-5       0.55056       0.00000  
     235  hru0235                    hru         235     7.0427E-6       0.05618       0.00000  
     236  hru0236                    hru         236     2.5354E-5       0.20225       0.00000  
     237  hru0237                    hru         237     2.3945E-5       0.19101       0.00000  
     238  hru0238                    hru         238     2.0424E-4       0.65611       0.00000  
     239  hru0239                    hru         239     5.6342E-6       0.01810       0.00000  
     240  hru0240                    hru         240     1.0142E-4       0.32579       0.00000  
     241  hru0241                    hru         241     1.3240E-4       0.43519       0.00000  
     242  hru0242                    hru         242     1.6903E-5       0.05556       0.00000  
     243  hru0243                    hru         243     6.3385E-5       0.20833       0.00000  
     244  hru0244                    hru         244     7.6062E-5       0.25000       0.00000  
     245  hru0245                    hru         245     1.5494E-5       0.05093       0.00000  
     246  hru0246                    hru         246     3.4087E-4       0.86429       0.00000  
     247  hru0247                    hru         247     3.8031E-5       0.09643       0.00000  
     248  hru0248                    hru         248     4.2256E-6       0.01071       0.00000  
     249  hru0249                    hru         249     1.1268E-5       0.02857       0.00000  
     250  hru0250                    hru         250     5.6624E-4       0.51938       0.00000  
     251  hru0251                    hru         251     4.4369E-4       0.40698       0.00000  
     252  hru0252                    hru         252     4.2256E-5       0.03876       0.00000  
     253  hru0253                    hru         253     1.4085E-5       0.01292       0.00000  
     254  hru0254                    hru         254     2.3945E-5       0.02196       0.00000  
     255  hru0255                    hru         255     3.9439E-5       0.29167       0.00000  
     256  hru0256                    hru         256     8.3104E-5       0.61458       0.00000  
     257  hru0257                    hru         257     4.2256E-6       0.03125       0.00000  
     258  hru0258                    hru         258     8.4513E-6       0.06250       0.00000  
     259  hru0259                    hru         259     1.4649E-4       0.10856       0.00000  
     260  hru0260                    hru         260     3.7186E-4       0.27557       0.00000  
     261  hru0261                    hru         261     2.1128E-5       0.01566       0.00000  
     262  hru0262                    hru         262     2.8312E-4       0.20981       0.00000  
     263  hru0263                    hru         263     4.2256E-5       0.03132       0.00000  
     264  hru0264                    hru         264     1.0705E-4       0.07933       0.00000  
     265  hru0265                    hru         265     2.3945E-5       0.01775       0.00000  
     266  hru0266                    hru         266     5.6342E-5       0.04175       0.00000  
     267  hru0267                    hru         267     1.5353E-4       0.11378       0.00000  
     268  hru0268                    hru         268     2.8171E-6       0.00209       0.00000  
     269  hru0269                    hru         269     5.6342E-6       0.00418       0.00000  
     270  hru0270                    hru         270     5.3525E-5       0.03967       0.00000  
     271  hru0271                    hru         271     4.9299E-5       0.03653       0.00000  
     272  hru0272                    hru         272     5.6342E-6       0.00418       0.00000  
     273  hru0273                    hru         273     2.1128E-5       0.01566       0.00000  
     274  hru0274                    hru         274     5.6342E-6       0.00418       0.00000  
     275  hru0275                    hru         275     2.1128E-4       0.62500       0.00000  
     276  hru0276                    hru         276     4.7891E-5       0.14167       0.00000  
     277  hru0277                    hru         277     5.3525E-5       0.15833       0.00000  
     278  hru0278                    hru         278     2.5354E-5       0.07500       0.00000  
     279  hru0279                    hru         279     3.7045E-4       0.55839       0.00000  
     280  hru0280                    hru         280     9.7190E-5       0.14650       0.00000  
     281  hru0281                    hru         281     1.1409E-4       0.17197       0.00000  
     282  hru0282                    hru         282     3.8031E-5       0.05732       0.00000  
     283  hru0283                    hru         283     2.2537E-5       0.03397       0.00000  
     284  hru0284                    hru         284     4.2256E-6       0.00637       0.00000  
     285  hru0285                    hru         285     1.6903E-5       0.02548       0.00000  
     286  hru0286                    hru         286     7.7470E-5       0.30899       0.00000  
     287  hru0287                    hru         287     1.3381E-4       0.53371       0.00000  
     288  hru0288                    hru         288     5.6342E-6       0.02247       0.00000  
     289  hru0289                    hru         289     3.3805E-5       0.13483       0.00000  
     290  hru0290                    hru         290     1.1832E-4       0.53503       0.00000  
     291  hru0291                    hru         291     1.0282E-4       0.46497       0.00000  
     292  hru0292                    hru         292     8.1696E-5       0.01486       0.00000  
     293  hru0293                    hru         293     1.3663E-4       0.02486       0.00000  
     294  hru0294                    hru         294     1.0198E-3       0.18555       0.00000  
     295  hru0295                    hru         295     1.3212E-3       0.24039       0.00000  
     296  hru0296                    hru         296     6.0145E-4       0.10943       0.00000  
     297  hru0297                    hru         297     5.4933E-5       0.00999       0.00000  
     298  hru0298                    hru         298     5.6342E-6       0.00103       0.00000  
     299  hru0299                    hru         299     4.2256E-6       0.00077       0.00000  
     300  hru0300                    hru         300     3.5214E-5       0.00641       0.00000  
     301  hru0301                    hru         301     6.3385E-5       0.01153       0.00000  
     302  hru0302                    hru         302     6.1976E-5       0.01128       0.00000  
     303  hru0303                    hru         303     3.8031E-5       0.00692       0.00000  
     304  hru0304                    hru         304     4.2256E-6       0.00077       0.00000  