ls_unit.def: written by SWAT+ editor v2.0.4 on 2022-01-21 12:23
759
      id              name          area  elem_tot  elements  
       1           rtu0011       0.02000         1         1  
       2           rtu0021       2.39000         2         2        -7  
       3           rtu0022       7.41000         2         8       -16  
       4           rtu0031       3.70000         2        37       -43  
       5           rtu0032       2.50000         2        44       -47  
       6           rtu0041       0.91000         2       143      -146  
       7           rtu0042       0.66000         2       147      -149  
       8           rtu0051       1.48000         2       157      -160  
       9           rtu0052       2.67000         2       150      -156  
      10           rtu0061       0.43000         2        17       -21  
      11           rtu0062      21.08000         2        22       -36  
      12           rtu0071       0.15000         2       173      -175  
      13           rtu0072       5.40000         2       161      -172  
      14           rtu0081       0.28000         2       229      -230  
      15           rtu0082      16.70000         2       211      -228  
      16           rtu0091       1.85000         2        85       -88  
      17           rtu0092       7.98000         2        77       -84  
      18           rtu0101       0.25000         2        93       -94  
      19           rtu0102       4.03000         2        89       -92  
      20           rtu0111       0.86000         2       176      -178  
      21           rtu0112       6.90000         2       179      -183  
      22           rtu0121       0.05000         2       208      -210  
      23           rtu0122      13.42000         2       193      -207  
      24           rtu0131       0.34000         2       190      -192  
      25           rtu0132      16.61000         2       184      -189  
      26           rtu0141       1.12000         2       132      -142  
      27           rtu0142      51.13000         2        95      -131  
      28           rtu0151       0.40000         2        70       -76  
      29           rtu0152      23.01000         2        48       -69  
      30           rtu0161       0.89000         2       234      -237  
      31           rtu0162       0.32000         2       231      -233  
      32           rtu0171       2.16000         2       241      -245  
      33           rtu0172       2.21000         2       238      -240  
      34           rtu0181       2.40000         2       275      -278  
      35           rtu0191       4.71000         2       279      -285  
      36           rtu0201       7.88000         2       492      -502  
      37           rtu0202      11.41000         2       483      -491  
      38           rtu0211       2.54000         2       456      -462  
      39           rtu0212       1.33000         2       463      -466  
      40           rtu0221       2.80000         2       467      -471  
      41           rtu0222       2.48000         2       472      -482  
      42           rtu0231       2.14000         2       782      -790  
      43           rtu0232       5.97000         2       765      -781  
      44           rtu0241      15.20000         2       791      -817  
      45           rtu0242      18.40000         2       818      -843  
      46           rtu0251      26.12000         2       873      -899  
      47           rtu0252      27.59000         2       900      -931  
      48           rtu0261       4.68000         2       685      -693  
      49           rtu0262      12.32000         2       658      -684  
      50           rtu0271       1.66000         2       704      -706  
      51           rtu0272       4.08000         2       694      -703  
      52           rtu0281       7.79000         2       736      -739  
      53           rtu0282      49.06000         2       707      -735  
      54           rtu0291       3.00000         2       503      -511  
      55           rtu0292      39.60000         2       512      -550  
      56           rtu0301       0.85000         2       581      -592  
      57           rtu0302      46.18000         2       593      -616  
      58           rtu0311       1.78000         2       286      -289  
      59           rtu0312       1.57000         2       290      -291  
      60           rtu0321       2.40000         2       450      -455  
      61           rtu0322       2.26000         2       439      -449  
      62           rtu0331       1.14000         2       327      -338  
      63           rtu0332      39.02000         2       292      -326  
      64           rtu0341       0.47000         2       571      -580  
      65           rtu0342      24.11000         2       551      -570  
      66           rtu0351       0.34000         2       740      -744  
      67           rtu0352      26.78000         2       745      -764  
      68           rtu0361       0.94000         2       866      -872  
      69           rtu0362      10.69000         2       844      -865  
      70           rtu0371       0.70000         2       653      -657  
      71           rtu0372      37.97000         2       617      -652  
      72           rtu0381       0.11000         1       377  
      73           rtu0382      13.33000         2       378      -383  
      74           rtu0391       0.05000         1       376  
      75           rtu0392      10.27000         2       364      -375  
      76           rtu0401       0.11000         2       339      -341  
      77           rtu0402      13.76000         2       342      -363  
      78           rtu0411       0.18000         2       435      -438  
      79           rtu0412      10.95000         2       425      -434  
      80           rtu0421       0.96000         2       255      -258  
      81           rtu0422       9.58000         2       259      -274  
      82           rtu0431       0.86000         2       417      -424  
      83           rtu0432      52.22000         2       384      -416  
      84           rtu0441       2.80000         2       246      -249  
      85           rtu0442       7.74000         2       250      -254  
      86           rtu0451       4.18000         2       976      -984  
      87           rtu0452      11.59000         2       961      -975  
      88           rtu0461       3.24000         2      1581     -1598  
      89           rtu0462       3.15000         2      1599     -1607  
      90           rtu0471       6.28000         2      1625     -1632  
      91           rtu0472      13.34000         2      1608     -1624  
      92           rtu0481       1.44000         2      1668     -1671  
      93           rtu0482       2.48000         2      1659     -1667  
      94           rtu0491       1.82000         2      1691     -1696  
      95           rtu0492       2.99000         2      1697     -1710  
      96           rtu0501       2.82000         2      2771     -2778  
      97           rtu0502       2.68000         2      2779     -2786  
      98           rtu0511       5.76000         2      2787     -2793  
      99           rtu0512      14.45000         2      2794     -2814  
     100           rtu0521      10.06000         2      1711     -1722  
     101           rtu0522      12.66000         2      1723     -1738  
     102           rtu0531       0.18000         1      1739  
     103           rtu0532       0.11000         2      1740     -1741  
     104           rtu0541       4.98000         2      1787     -1794  
     105           rtu0542       4.33000         2      1795     -1806  
     106           rtu0551       3.94000         2      3721     -3740  
     107           rtu0552       1.98000         2      3741     -3754  
     108           rtu0561       0.58000         2      1024     -1028  
     109           rtu0562       2.19000         2      1029     -1043  
     110           rtu0571       1.64000         2      1011     -1023  
     111           rtu0572      19.55000         2       985     -1010  
     112           rtu0581       0.54000         2      1091     -1099  
     113           rtu0582       2.27000         2      1079     -1090  
     114           rtu0591       1.42000         2      1140     -1145  
     115           rtu0592      10.42000         2      1146     -1156  
     116           rtu0601       2.40000         2      1940     -1943  
     117           rtu0602      15.38000         2      1929     -1939  
     118           rtu0611       1.46000         2      2010     -2011  
     119           rtu0612       8.86000         2      2012     -2033  
     120           rtu0621       3.66000         2      2094     -2102  
     121           rtu0622      24.44000         2      2061     -2093  
     122           rtu0631       1.60000         2      1267     -1283  
     123           rtu0632      60.04000         2      1209     -1266  
     124           rtu0641       1.51000         2      1308     -1311  
     125           rtu0642      24.88000         2      1284     -1307  
     126           rtu0651       1.03000         2      1332     -1338  
     127           rtu0652      10.82000         2      1339     -1368  
     128           rtu0661       0.15000         1      1436  
     129           rtu0662       0.97000         2      1437     -1444  
     130           rtu0671       0.11000         1      1445  
     131           rtu0672       1.73000         2      1446     -1452  
     132           rtu0681       2.18000         2      1742     -1745  
     133           rtu0682      11.15000         2      1746     -1770  
     134           rtu0691       0.46000         2      2059     -2060  
     135           rtu0692       2.28000         2      2046     -2058  
     136           rtu0701       3.37000         2      3341     -3346  
     137           rtu0702       9.29000         2      3347     -3366  
     138           rtu0711       1.46000         2      3367     -3373  
     139           rtu0712      13.04000         2      3374     -3409  
     140           rtu0721       0.69000         2      2141     -2151  
     141           rtu0722      34.28000         2      2103     -2140  
     142           rtu0731       1.04000         2      1868     -1882  
     143           rtu0732      33.11000         2      1883     -1928  
     144           rtu0741       0.44000         2      3410     -3415  
     145           rtu0742      19.94000         2      3416     -3463  
     146           rtu0751       1.26000         2      1518     -1533  
     147           rtu0752      46.23000         2      1534     -1580  
     148           rtu0761       0.03000         2      1109     -1110  
     149           rtu0762       1.69000         2      1100     -1108  
     150           rtu0771       0.13000         2      1325     -1331  
     151           rtu0772       3.03000         2      1312     -1324  
     152           rtu0781       0.49000         2      1988     -1997  
     153           rtu0782      16.44000         2      1966     -1987  
     154           rtu0791       0.27000         2      2044     -2045  
     155           rtu0792      18.56000         2      2034     -2043  
     156           rtu0801       0.58000         2      1859     -1867  
     157           rtu0802      37.52000         2      1807     -1858  
     158           rtu0811       1.84000         2      1771     -1773  
     159           rtu0812      21.04000         2      1774     -1786  
     160           rtu0821       0.67000         2      1202     -1208  
     161           rtu0822      28.66000         2      1177     -1201  
     162           rtu0831       0.24000         2      2815     -2819  
     163           rtu0832      11.85000         2      2820     -2832  
     164           rtu0841       0.24000         2      2008     -2009  
     165           rtu0842      17.54000         2      1998     -2007  
     166           rtu0851       0.89000         2      1453     -1464  
     167           rtu0852      22.86000         2      1465     -1492  
     168           rtu0861       0.53000         2      1960     -1965  
     169           rtu0862      13.88000         2      1944     -1959  
     170           rtu0871       0.40000         2      1514     -1517  
     171           rtu0872      16.59000         2      1493     -1513  
     172           rtu0881       2.08000         2      1672     -1674  
     173           rtu0882      15.74000         2      1675     -1690  
     174           rtu0891       1.23000         2      1649     -1658  
     175           rtu0892      22.37000         2      1633     -1648  
     176           rtu0901       0.64000         2      1129     -1139  
     177           rtu0902      21.67000         2      1111     -1128  
     178           rtu0911       0.34000         2      1430     -1435  
     179           rtu0912      30.08000         2      1402     -1429  
     180           rtu0921       0.30000         2      1387     -1390  
     181           rtu0922      32.49000         2      1369     -1386  
     182           rtu0931       0.15000         2      1391     -1395  
     183           rtu0932      12.50000         2      1396     -1401  
     184           rtu0941       0.03000         2      1157     -1158  
     185           rtu0942      14.20000         2      1159     -1176  
     186           rtu0951       1.64000         2       951      -960  
     187           rtu0952      21.30000         2       932      -950  
     188           rtu0961       0.20000         2      1076     -1078  
     189           rtu0962      20.06000         2      1065     -1075  
     190           rtu0971       0.14000         2      1044     -1048  
     191           rtu0972      11.15000         2      1049     -1064  
     192           rtu0981       0.96000         2      2858     -2861  
     193           rtu0982       7.54000         2      2862     -2879  
     194           rtu0991      13.71000         2      2880     -2904  
     195           rtu0992      32.81000         2      2905     -2959  
     196           rtu1001       3.75000         2      3194     -3198  
     197           rtu1002      10.36000         2      3172     -3193  
     198           rtu1011       2.73000         2      3271     -3275  
     199           rtu1012       8.03000         2      3276     -3294  
     200           rtu1021       2.77000         2      5254     -5262  
     201           rtu1022       3.85000         2      5263     -5282  
     202           rtu1031      10.51000         2      3805     -3826  
     203           rtu1032      14.93000         2      3827     -3864  
     204           rtu1041       2.60000         2      3963     -3970  
     205           rtu1042       1.55000         2      3971     -3978  
     206           rtu1051      12.20000         2      3979     -3992  
     207           rtu1052       9.90000         2      3993     -4019  
     208           rtu1061      12.20000         2      4831     -4840  
     209           rtu1062      12.94000         2      4812     -4830  
     210           rtu1071       6.98000         2      4776     -4784  
     211           rtu1072      17.11000         2      4746     -4775  
     212           rtu1081       3.88000         2      4699     -4714  
     213           rtu1082      10.23000         2      4681     -4698  
     214           rtu1091       2.96000         2      4639     -4643  
     215           rtu1092      10.84000         2      4623     -4638  
     216           rtu1101       3.96000         2      4666     -4680  
     217           rtu1102       4.73000         2      4644     -4665  
     218           rtu1111       1.32000         2      4880     -4890  
     219           rtu1112       0.28000         2      4891     -4893  
     220           rtu1121      16.40000         2      4894     -4932  
     221           rtu1122      42.30000         2      4933     -4986  
     222           rtu1131       0.92000         2      2174     -2180  
     223           rtu1132       5.24000         2      2152     -2173  
     224           rtu1141       2.78000         2      2960     -2979  
     225           rtu1142      34.97000         2      2980     -3029  
     226           rtu1151       3.43000         2      2231     -2242  
     227           rtu1152      35.24000         2      2243     -2284  
     228           rtu1161       0.38000         2      2353     -2357  
     229           rtu1162       0.26000         2      2348     -2352  
     230           rtu1171       1.04000         2      2366     -2373  
     231           rtu1172       5.97000         2      2374     -2386  
     232           rtu1181       0.28000         2      2424     -2426  
     233           rtu1182       7.44000         2      2406     -2423  
     234           rtu1191       0.77000         2      2492     -2494  
     235           rtu1192      31.41000         2      2460     -2491  
     236           rtu1201       1.52000         2      3088     -3104  
     237           rtu1202      43.39000         2      3046     -3087  
     238           rtu1211       0.69000         2      3334     -3340  
     239           rtu1212      32.33000         2      3295     -3333  
     240           rtu1221       3.19000         2      5028     -5036  
     241           rtu1222      22.96000         2      4987     -5027  
     242           rtu1231       1.14000         2      2427     -2441  
     243           rtu1232      11.91000         2      2442     -2459  
     244           rtu1241       0.91000         2      5419     -5426  
     245           rtu1242      10.47000         2      5427     -5454  
     246           rtu1251       1.62000         2      4364     -4375  
     247           rtu1252      14.84000         2      4332     -4363  
     248           rtu1261       1.36000         2      4235     -4238  
     249           rtu1262      14.81000         2      4214     -4234  
     250           rtu1271       0.72000         2      4298     -4301  
     251           rtu1272       8.97000         2      4283     -4297  
     252           rtu1281       0.08000         2      4376     -4377  
     253           rtu1291       1.75000         2      3484     -3494  
     254           rtu1292      17.15000         2      3495     -3529  
     255           rtu1301       0.98000         2      4391     -4394  
     256           rtu1302      11.03000         2      4378     -4390  
     257           rtu1311       0.05000         2      4413     -4414  
     258           rtu1312       0.21000         2      4409     -4412  
     259           rtu1321       0.11000         2      4428     -4430  
     260           rtu1322       1.67000         2      4431     -4442  
     261           rtu1331       0.19000         2      2364     -2365  
     262           rtu1332       1.56000         2      2358     -2363  
     263           rtu1341       0.33000         2      4406     -4408  
     264           rtu1342       6.87000         2      4395     -4405  
     265           rtu1351       1.00000         2      3120     -3123  
     266           rtu1352      17.47000         2      3105     -3119  
     267           rtu1361       0.29000         2      3567     -3568  
     268           rtu1362       2.69000         2      3558     -3566  
     269           rtu1371       1.67000         2      3904     -3913  
     270           rtu1372      41.54000         2      3865     -3903  
     271           rtu1381       0.30000         2      4514     -4518  
     272           rtu1382       6.51000         2      4501     -4513  
     273           rtu1391       0.10000         1      3203  
     274           rtu1392       0.67000         2      3199     -3202  
     275           rtu1401       0.71000         2      3656     -3662  
     276           rtu1402      17.57000         2      3634     -3655  
     277           rtu1411       0.15000         2      4307     -4309  
     278           rtu1412       1.26000         2      4302     -4306  
     279           rtu1421       0.11000         2      4251     -4254  
     280           rtu1422       2.14000         2      4239     -4250  
     281           rtu1431       0.15000         2      3556     -3557  
     282           rtu1432       2.34000         2      3549     -3555  
     283           rtu1441       0.19000         2      2495     -2499  
     284           rtu1442      16.02000         2      2500     -2509  
     285           rtu1451       0.51000         2      4571     -4575  
     286           rtu1452      24.80000         2      4556     -4570  
     287           rtu1461       0.60000         2      4494     -4500  
     288           rtu1462      32.50000         2      4470     -4493  
     289           rtu1471       0.81000         2      2344     -2347  
     290           rtu1472      26.82000         2      2321     -2343  
     291           rtu1481       0.50000         2      3204     -3208  
     292           rtu1482      23.28000         2      3209     -3240  
     293           rtu1491       0.59000         2      4785     -4792  
     294           rtu1492      12.49000         2      4793     -4811  
     295           rtu1501       0.21000         2      3695     -3698  
     296           rtu1502      12.49000         2      3699     -3720  
     297           rtu1511       0.35000         2      3691     -3694  
     298           rtu1512      18.51000         2      3663     -3690  
     299           rtu1521       0.34000         2      3241     -3243  
     300           rtu1522      18.96000         2      3244     -3270  
     301           rtu1531       0.20000         2      2403     -2405  
     302           rtu1532      12.21000         2      2387     -2402  
     303           rtu1541       0.48000         2      3164     -3171  
     304           rtu1542      30.57000         2      3124     -3163  
     305           rtu1551       0.12000         2      4535     -4536  
     306           rtu1552      11.25000         2      4537     -4555  
     307           rtu1561       0.13000         2      4443     -4444  
     308           rtu1562      17.17000         2      4445     -4469  
     309           rtu1571       0.67000         2      4715     -4721  
     310           rtu1572      15.89000         2      4722     -4745  
     311           rtu1581       0.41000         2      2311     -2320  
     312           rtu1582      27.15000         2      2285     -2310  
     313           rtu1591       0.17000         1      4427  
     314           rtu1592      14.14000         2      4415     -4426  
     315           rtu1601       0.02000         1      4519  
     316           rtu1602      10.07000         2      4520     -4534  
     317           rtu1611       0.57000         2      3595     -3601  
     318           rtu1612      34.39000         2      3602     -3633  
     319           rtu1621       0.32000         2      4870     -4879  
     320           rtu1622      18.77000         2      4841     -4869  
     321           rtu1631       0.25000         2      4329     -4331  
     322           rtu1632      17.19000         2      4310     -4328  
     323           rtu1641       0.75000         2      4020     -4027  
     324           rtu1642      14.20000         2      4028     -4049  
     325           rtu1651       0.08000         1      3045  
     326           rtu1652      11.06000         2      3030     -3044  
     327           rtu1661       0.09000         2      4281     -4282  
     328           rtu1662      15.72000         2      4255     -4280  
     329           rtu1671       0.14000         2      3569     -3573  
     330           rtu1672      10.66000         2      3574     -3594  
     331           rtu1681       0.08000         2      3547     -3548  
     332           rtu1682      10.78000         2      3530     -3546  
     333           rtu1691       0.38000         2      2209     -2214  
     334           rtu1692      17.40000         2      2215     -2230  
     335           rtu1701       0.25000         2      4175     -4181  
     336           rtu1702      12.50000         2      4154     -4174  
     337           rtu1711       0.19000         2      4208     -4213  
     338           rtu1712      12.65000         2      4182     -4207  
     339           rtu1721       0.53000         2      3914     -3926  
     340           rtu1722      26.83000         2      3927     -3962  
     341           rtu1731       0.37000         2      2203     -2208  
     342           rtu1732      20.68000         2      2181     -2202  
     343           rtu1741       0.46000         2      4148     -4153  
     344           rtu1742      23.85000         2      4114     -4147  
     345           rtu1751       0.80000         2      4615     -4622  
     346           rtu1752      28.47000         2      4576     -4614  
     347           rtu1761       0.12000         2      3481     -3483  
     348           rtu1762      11.82000         2      3464     -3480  
     349           rtu1771       0.64000         2      4100     -4113  
     350           rtu1772      34.26000         2      4050     -4099  
     351           rtu1781       0.49000         2      3776     -3780  
     352           rtu1782      23.56000         2      3755     -3775  
     353           rtu1791       0.44000         2      3798     -3804  
     354           rtu1792      10.94000         2      3781     -3797  
     355           rtu1801       0.36000         2      2855     -2857  
     356           rtu1802      11.86000         2      2833     -2854  
     357           rtu1811       2.87000         2      5305     -5310  
     358           rtu1812      14.68000         2      5283     -5304  
     359           rtu1821       4.40000         2      6462     -6469  
     360           rtu1822       9.66000         2      6470     -6497  
     361           rtu1831       0.26000         2      6568     -6570  
     362           rtu1832       0.29000         2      6562     -6567  
     363           rtu1841      10.18000         2      6546     -6561  
     364           rtu1842      30.60000         2      6498     -6545  
     365           rtu1851       2.95000         2      6708     -6715  
     366           rtu1852      13.45000         2      6675     -6707  
     367           rtu1861       1.41000         2      6794     -6799  
     368           rtu1862       3.66000         2      6800     -6811  
     369           rtu1871       3.17000         2      6913     -6919  
     370           rtu1872      12.81000         2      6888     -6912  
     371           rtu1881       3.91000         2      8648     -8654  
     372           rtu1882      23.56000         2      8610     -8647  
     373           rtu1891       0.10000         1      7715  
     374           rtu1901       3.78000         2      6940     -6952  
     375           rtu1902       9.51000         2      6920     -6939  
     376           rtu1911       8.11000         2      7001     -7022  
     377           rtu1912      27.61000         2      6953     -7000  
     378           rtu1921       9.89000         2      7102     -7122  
     379           rtu1922      50.82000         2      7052     -7101  
     380           rtu1931       4.18000         2      7172     -7181  
     381           rtu1932      18.13000         2      7149     -7171  
     382           rtu1941       0.40000         2      7716     -7718  
     383           rtu1942       0.73000         2      7719     -7728  
     384           rtu1951       3.40000         2      7729     -7740  
     385           rtu1952      23.50000         2      7741     -7782  
     386           rtu1961       1.18000         2      7857     -7864  
     387           rtu1962      19.19000         2      7832     -7856  
     388           rtu1971       0.24000         2      8182     -8184  
     389           rtu1972       0.05000         2      8185     -8186  
     390           rtu1981       1.61000         2      8068     -8071  
     391           rtu1982      16.80000         2      8047     -8067  
     392           rtu1991       2.00000         2      8364     -8371  
     393           rtu1992      20.62000         2      8372     -8394  
     394           rtu2001       0.80000         2      8655     -8660  
     395           rtu2002       2.57000         2      8661     -8674  
     396           rtu2011       0.83000         2      8415     -8419  
     397           rtu2012       4.50000         2      8420     -8429  
     398           rtu2021      10.52000         2      8102     -8129  
     399           rtu2022     164.19000         2      8130     -8181  
     400           rtu2031       7.69000         2      5656     -5676  
     401           rtu2032      46.07000         2      5622     -5655  
     402           rtu2041       4.91000         2      5763     -5779  
     403           rtu2042      25.08000         2      5780     -5812  
     404           rtu2051       3.29000         2      5874     -5882  
     405           rtu2052      35.92000         2      5833     -5873  