management.sch: written by SWAT+ editor on 2021-05-03 14:11
name                       numb_ops  numb_auto            op_typ       mon       day        hu_sch          op_data1          op_data2      op_data3  
corn_rot                          0          1  
                                                      pl_hv_corn  
soyb_rot                          0          1  
                                                      pl_hv_soyb  

Pasture                          13          0
                                                            graz         4        30       0.00000             grz_1              null       0.00000
                                                            fert         5         1       0.00000            elem_p         broadcast       0.00000
                                                            fert         5         1       0.00000            elem_n         broadcast       0.00000
                                                            fert         5         1       0.00000            elem_p         broadcast       0.00000
                                                            fert         5         1       0.00000            elem_n         broadcast       0.00000
                                                            fert         5         1       0.00000            elem_p         broadcast       0.00000
                                                            fert         5         1       0.00000            elem_n         broadcast       0.00000
                                                            fert         5         1       0.00000            elem_p         broadcast       0.00000
                                                            fert         5         1       0.00000            elem_n         broadcast       0.00000
                                                            fert         5         1       0.00000            elem_p         broadcast       0.10000
                                                            fert         5         1       0.00000            elem_n         broadcast       0.10000
                                                            plnt         5         1       0.00000              past              null       0.00000
                                                            fert         8         1       0.00000            elem_n         broadcast      44.83000
                                                            skip         0         0       0.00000              null              null       0.00000
Pasturetest                      12          0
                                                            fert         0         0       0.10000            elem_p         broadcast       0.00000
                                                            fert         0         0       0.10000            elem_n         broadcast       0.00000
                                                            fert         0         0       0.10000            elem_p         broadcast       0.00000
                                                            fert         0         0       0.10000            elem_n         broadcast       0.00000
                                                            fert         0         0       0.10000            elem_p         broadcast       0.00000
                                                            fert         0         0       0.10000            elem_n         broadcast       0.00000
                                                            fert         0         0       0.10000            elem_p         broadcast       0.00000
                                                            fert         0         0       0.10000            elem_n         broadcast       0.00000
                                                            fert         0         0       0.10000            elem_p         broadcast       0.00000
                                                            fert         0         0       0.15000            elem_n         broadcast       0.10000
                                                            plnt         0         0       0.15000              past              null       0.00000
                                                            graz         0         0       1.20000             grz_1              null       0.00000 
CS_FullTill                      15          0  
                                                            till         5         5       0.00000           fldcult              null       0.00000  
                                                            fert         5         5       0.00000            elem_n            inject      56.00000   
                                                            fert         5         5       0.00000            elem_p            inject       9.80000
                                                            plnt         5         5       0.00000              corn              null       0.00000
                                                            fert         6        10       0.00000            elem_n            inject     168.10000
                                                            hvkl        10        14       0.00000              corn             grain       0.00000
                                                            till        10        14       0.00000          chisplow              null       0.00000 
                                                            till         5        20       0.00000          diskplow              null       0.00000
                                                            plnt         5        24       0.00000              soyb              null       0.00000
                                                            fert         5        24       0.00000            elem_n            inject       6.70000   
                                                            fert         5        24       0.00000            elem_p            inject       9.80000    
                                                            hvkl        10         7       0.00000              soyb             grain       0.00000
                                                            fert        10        20       0.00000            elem_n         broadcast      18.50000   
                                                            fert        10        20       0.00000            elem_p         broadcast      38.20000
                                                            till        10        20       0.00000          chisplow              null       0.00000 
SC_FullTill                      15          0  
                                                            till         5        20       0.00000          diskplow              null       0.00000
                                                            plnt         5        24       0.00000              soyb              null       0.00000
                                                            fert         5        24       0.00000            elem_n            inject       6.70000   
                                                            fert         5        24       0.00000            elem_p            inject       9.80000    
                                                            hvkl        10         7       0.00000              soyb             grain       0.00000
                                                            fert        10        20       0.00000            elem_n         broadcast      18.50000   
                                                            fert        10        20       0.00000            elem_p         broadcast      38.20000
                                                            till        10        20       0.00000          chisplow              null       0.00000 
                                                            till         5         5       0.00000           fldcult              null       0.00000  
                                                            fert         5         5       0.00000            elem_n            inject      56.00000   
                                                            fert         5         5       0.00000            elem_p            inject       9.80000
                                                            plnt         5         5       0.00000              corn              null       0.00000
                                                            fert         6        10       0.00000            elem_n            inject     168.10000
                                                            hvkl        10        14       0.00000              corn             grain       0.00000
                                                            till        10        14       0.00000          chisplow              null       0.00000 
CS_ReduceTillorig                14          1
                                                     p_fall_test  
                                                            till         5         5       0.00000          diskplow              null       0.00000  
                                                            fert         5         5       0.00000            elem_n            inject      40.40000   
                                                            fert         5         5       0.00000            elem_p            inject       9.80000
                                                            plnt         5         5       0.00000              corn              null       0.00000
                                                            fert         6        10       0.00000            elem_n            inject     156.90000
                                                            hvkl        10        14       0.00000              corn             grain       0.00000
                                                            till        10        20       0.00000          chisplow              null       0.00000 
                                                            plnt         5        24       0.00000              soyb              null       0.00000
                                                            fert         5        24       0.00000            elem_n            inject       6.70000   
                                                            fert         5        24       0.00000            elem_p            inject       9.80000    
                                                            hvkl        10         7       0.00000              soyb             grain       0.00000
                                                            fert        10        20       0.00000            elem_n         broadcast      18.50000   
                                                            fert        10        20       0.00000            elem_p         broadcast      38.20000
                                                            till        10        20       0.00000          diskplow              null       0.00000
CS_ReduceTill                    12          1
                                                   150lb_y2_fall  
                                                            till         5         5       0.00000          diskplow              null       0.00000  
                                                            fert         5         5       0.00000            elem_n            inject      50.60000   
                                                            fert         5         5       0.00000            elem_p            inject       9.80000
                                                            plnt         5         5       0.00000              corn              null       0.00000
                                                            fert         6        10       0.00000            elem_n            inject     168.10000
                                                            hvkl        10        14       0.00000              corn             grain       0.00000
                                                            till        10        20       0.00000          diskplow              null       0.00000 
                                                            plnt         5        24       0.00000              soyb              null       0.00000
                                                            fert         5        24       0.00000            elem_n            inject       6.70000   
                                                            fert         5        24       0.00000            elem_p            inject       9.80000    
                                                            hvkl        10         7       0.00000              soyb             grain       0.00000
                                                            till        10        20       0.00000          diskplow              null       0.00000

SC_ReduceTillorig                14          0  
                                                            plnt         5        24       0.00000              soyb              null       0.00000
                                                            fert         5        24       0.00000            elem_n            inject       6.70000   
                                                            fert         5        24       0.00000            elem_p            inject       9.80000    
                                                            hvkl        10         7       0.00000              soyb             grain       0.00000
                                                            fert        10        20       0.00000            elem_n         broadcast      18.50000   
                                                            fert        10        20       0.00000            elem_p         broadcast      38.20000
                                                            till        10        20       0.00000          diskplow              null       0.000
                                                            till         5         5       0.00000          diskplow              null       0.00000  
                                                            fert         5         5       0.00000            elem_n            inject      50.60000   
                                                            fert         5         5       0.00000            elem_p            inject       9.80000
                                                            plnt         5         5       0.00000              corn              null       0.00000
                                                            fert         6        10       0.00000            elem_n            inject     168.10000
                                                            hvkl        10        14       0.00000              corn             grain       0.00000
                                                            till        10        20       0.00000          diskplow              null       0.00000 

SC_ReduceTill                    12          1
                                                   150lb_y1_fall  
                                                            plnt         5        24       0.00000              soyb              null       0.00000
                                                            fert         5        24       0.00000            elem_n            inject       6.70000   
                                                            fert         5        24       0.00000            elem_p            inject       9.80000    
                                                            hvkl        10         7       0.00000              soyb             grain       0.00000
                                                            till        10        20       0.00000          diskplow              null       0.000
                                                            till         5         5       0.00000          diskplow              null       0.00000  
                                                            fert         5         5       0.00000            elem_n            inject      56.00000   
                                                            fert         5         5       0.00000            elem_p            inject       9.80000
                                                            plnt         5         5       0.00000              corn              null       0.00000
                                                            fert         6        10       0.00000            elem_n            inject     168.10000
                                                            hvkl        10        14       0.00000              corn             grain       0.00000
                                                            till        10        20       0.00000          diskplow              null       0.00000 
CS_RotNoTillorig                 12          0  
                                                            fert         5         4       0.00000            elem_n         broadcast      56.00000   
                                                            till         5         4       0.00000           fldcult              null       0.00000
                                                            fert         5         5       0.00000            elem_n            inject       3.90000   
                                                            fert         5         5       0.00000            elem_p            inject       5.90000 
                                                            plnt         5         5       0.00000              corn              null       0.00000
                                                            fert         6        10       0.00000            elem_n            inject     134.50000
                                                            hvkl        10        14       0.00000              corn             grain       0.00000
                                                            plnt         5        24       0.00000              soyb              null       0.00000    
                                                            hvkl        10         7       0.00000              soyb             grain       0.00000
                                                            fert        10        20       0.00000            elem_n         broadcast      24.70000   
                                                            fert        10        20       0.00000            elem_p         broadcast      50.90000
                                                            till        10        20       0.00000          chisplow              null       0.00000 
CS_RotNoTill                     10          1 
                                                   200lb_y2_fall 
                                                            fert         5         4       0.00000            elem_n         broadcast      56.00000   
                                                            till         5         4       0.00000           fldcult              null       0.00000
                                                            fert         5         5       0.00000            elem_n            inject       3.90000   
                                                            fert         5         5       0.00000            elem_p            inject       5.90000 
                                                            plnt         5         5       0.00000              corn              null       0.00000
                                                            fert         6        10       0.00000            elem_n            inject     168.10000
                                                            hvkl        10        14       0.00000              corn             grain       0.00000
                                                            plnt         5        24       0.00000              soyb              null       0.00000    
                                                            hvkl        10         7       0.00000              soyb             grain       0.00000
                                                            till        10        20       0.00000          chisplow              null       0.00000 
SC_RotNoTillorig                 12          0  
                                                            plnt         5        24       0.00000              soyb              null       0.00000    
                                                            hvkl        10         7       0.00000              soyb             grain       0.00000
                                                            fert        10        20       0.00000            elem_n         broadcast      24.70000   
                                                            fert        10        20       0.00000            elem_p         broadcast      50.90000
                                                            till        10        20       0.00000          chisplow              null       0.00000 
                                                            fert         5         4       0.00000            elem_n         broadcast      56.00000   
                                                            till         5         4       0.00000           fldcult              null       0.00000
                                                            fert         5         5       0.00000            elem_n            inject       3.90000   
                                                            fert         5         5       0.00000            elem_p            inject       5.90000 
                                                            plnt         5         5       0.00000              corn              null       0.00000
                                                            fert         6        10       0.00000            elem_n            inject     134.50000
                                                            hvkl        10        14       0.00000              corn             grain       0.00000
SC_RotNoTill                     10          1 
                                                   200lb_y1_fall 
                                                            plnt         5        24       0.00000              soyb              null       0.00000    
                                                            hvkl        10         7       0.00000              soyb             grain       0.00000
                                                            till        10        20       0.00000          chisplow              null       0.00000 
                                                            fert         5         4       0.00000            elem_n         broadcast      56.00000   
                                                            till         5         4       0.00000           fldcult              null       0.00000
                                                            fert         5         5       0.00000            elem_n            inject       3.90000   
                                                            fert         5         5       0.00000            elem_p            inject       5.90000 
                                                            plnt         5         5       0.00000              corn              null       0.00000
                                                            fert         6        10       0.00000            elem_n            inject     168.10000
                                                            hvkl        10        14       0.00000              corn             grain       0.00000
CS_NoTill                        11          0    
                                                            fert         5         1       0.00000            elem_n         broadcast      18.50000   
                                                            fert         5         1       0.00000            elem_p         broadcast      38.20000
                                                            fert         5         5       0.00000            elem_n            inject      40.40000   
                                                            fert         5         5       0.00000            elem_p            inject       9.80000 
                                                            plnt         5         5       0.00000              corn              null       0.00000
                                                            fert         6        10       0.00000            elem_n            inject     165.30000
                                                            hvkl        10        14       0.00000              corn             grain       0.00000
                                                            plnt         5        24       0.00000              soyb              null       0.00000
                                                            fert         5        24       0.00000            elem_n            inject       6.70000   
                                                            fert         5        24       0.00000            elem_p            inject       9.80000    
                                                            hvkl        10         7       0.00000              soyb             grain       0.00000 
SC_NoTill                        11          0    
                                                            plnt         5        24       0.00000              soyb              null       0.00000
                                                            fert         5        24       0.00000            elem_n            inject       6.70000   
                                                            fert         5        24       0.00000            elem_p            inject       9.80000    
                                                            hvkl        10         7       0.00000              soyb             grain       0.00000 
                                                            fert         5         1       0.00000            elem_n         broadcast      18.50000   
                                                            fert         5         1       0.00000            elem_p         broadcast      38.20000
                                                            fert         5         5       0.00000            elem_n            inject      40.40000   
                                                            fert         5         5       0.00000            elem_p            inject       9.80000 
                                                            plnt         5         5       0.00000              corn              null       0.00000
                                                            fert         6        10       0.00000            elem_n            inject     165.30000
                                                            hvkl        10        14       0.00000              corn             grain       0.00000
CS_NoTillCCorig                  12          0    
                                                            kill         4        15       0.00000               rye              null       0.00000
                                                            fert         5         5       0.00000            elem_n            inject      59.40000   
                                                            fert         5         5       0.00000            elem_p            inject       5.90000
                                                            plnt         5         5       0.00000              corn              null       0.00000
                                                            fert         6        10       0.00000            elem_n            inject     156.90000
                                                            hvkl        10        14       0.00000              corn             grain       0.00000   
                                                            plnt         5        24       0.00000              soyb              null       0.00000    
                                                            hvkl        10         7       0.00000              soyb             grain       0.00000
                                                            fert        10        20       0.00000            elem_n         broadcast      24.70000   
                                                            fert        10        20       0.00000            elem_p         broadcast      50.90000
                                                            plnt        10        26       0.00000               rye              null       0.00000
                                                            till        10        26       0.00000          bedrollr              null       0.00000
CS_NoTillCC                      10          1
                                                   200lb_y2_fall    
                                                            kill         4        15       0.00000               rye              null       0.00000