object.cnt: written by SWAT+ editor v2.0.4 on 2022-01-21 12:22
name                   ls_area      tot_area       obj       hru      lhru       rtu       mfl       aqu       cha       res       rec      exco       dlr       can       pmp       out      lcha     aqu2d       hrd       wro  
ParallelLakes_decHRUfixDEM    7099.50000    7099.50000     10999      9409         0       759         0        78         0         3       375         0         0         0         0         0       375         0         0         0  
