parameters.bsn: written by SWAT+ editor v2.0.4 on 2022-01-17 18:35
  lai_noevap       sw_init      surq_lag      adj_pkrt  adj_pkrt_sed       lin_sed       exp_sed      orgn_min      n_uptake      p_uptake        n_perc        p_perc        p_soil       p_avail    rsd_decomp     pest_perc       msk_co1       msk_co2         msk_x    np_lchtile      evap_adj         scoef     denit_exp    denit_frac      man_bact      adj_uhyd       cn_froz       dorm_hr         plaps         tlaps     n_fix_max     rsd_decay     rsd_cover  urb_init_abst    petco_pmpt    uhyd_alpha      splash          rill      surq_exp       cov_mgt       cha_d50   cha_part_sd     day_lag_mx      igen  
     3.00000       0.00000       3.00000       5.00000       1.00000       0.01000       2.00000       0.00060      20.00000      20.00000       0.20000      10.00000     150.00000       0.02000       0.00000       0.50000       0.75000       0.25000       0.20000      10.00000       0.60000       1.00000       0.25000       1.10000       0.15000       0.00000       0.00086       0.00000       1.00000       0.50000      20.00000       0.10000       0.01000       1.00000       1.0000       1.00000       3.10000       0.90000       3.00000       0.02000      50.00000       1.57000             0         0  


