pcp.cli: Precipitation file names - file written by SWAT+ editor 2022-01-21 12:20:49.019887
filename
owcmet_pcp.pcp
