plant.ini: written by SWAT+ editor v2.0.4 on 2021-10-08 13:56
pcom_name          plt_cnt  rot_yr_ini          plt_name     lc_status      lai_init       bm_init      phu_init      plnt_pop      yrs_init      rsd_init  
frsd_comm                1         1  
                                        frsd             y       2.00000   50000.00000       0.00000       0.00000       1.00000   10000.00000  
CS_comm                  2         1  
                                        corn             n       0.00000       0.00000       0.00000       0.00000       0.00000   10000.00000                                        
					soyb             n       0.00000       0.00000       0.00000       0.00000       0.00000   10000.00000
SC_comm                  2         1  
					soyb             n       0.00000       0.00000       0.00000       0.00000       0.00000   10000.00000
                                        corn             n       0.00000       0.00000       0.00000       0.00000       0.00000   10000.00000
SCR_comm                 3         1  
					soyb             n       0.00000       0.00000       0.00000       0.00000       0.00000   10000.00000
					 rye             n       0.00000       0.00000       0.00000       0.00000       0.00000   10000.00000
                                        corn             n       0.00000       0.00000       0.00000       0.00000       0.00000   10000.00000  
CSR_comm                 3         1  
                                        corn             n       0.00000       0.00000       0.00000       0.00000       0.00000   10000.00000                                        
					soyb             n       0.00000       0.00000       0.00000       0.00000       0.00000   10000.00000
					 rye             n       0.00000       0.00000       0.00000       0.00000       0.00000   10000.0000
CSW_comm                 3         1                                       
                                        corn             n       0.00000       0.00000       0.00000       0.00000       0.00000   10000.00000                                        
					soyb             n       0.00000       0.00000       0.00000       0.00000       0.00000   10000.00000
                                        wwht             n       0.00000       0.00000       0.00000       0.00000       0.00000   10000.00000  
CSWS_comm                4         1                                       
                                        corn             n       0.00000       0.00000       0.00000       0.00000       0.00000   10000.00000                                        
					soyb             n       0.00000       0.00000       0.00000       0.00000       0.00000   10000.00000
                                        wwht             n       0.00000       0.00000       0.00000       0.00000       0.00000   10000.00000
					soyb             n       0.00000       0.00000       0.00000       0.00000       0.00000   10000.00000  
CSWR_comm                4         1                                       
                                        corn             n       0.00000       0.00000       0.00000       0.00000       0.00000   10000.00000                                        
					soyb             n       0.00000       0.00000       0.00000       0.00000       0.00000   10000.00000
                                        wwht             n       0.00000       0.00000       0.00000       0.00000       0.00000   10000.00000
					 rye             n       0.00000       0.00000       0.00000       0.00000       0.00000   10000.00000  
SWC_comm                 3         1                                       
                                        soyb             n       0.00000       0.00000       0.00000       0.00000       0.00000   10000.00000                                        
					wwht             n       0.00000       0.00000       0.00000       0.00000       0.00000   10000.00000
                                        corn             n       0.00000       0.00000       0.00000       0.00000       0.00000   10000.00000  
CSW_comm                 3         1                                       
                                        corn             n       0.00000       0.00000       0.00000       0.00000       0.00000   10000.00000  
                                        soyb             n       0.00000       0.00000       0.00000       0.00000       0.00000   10000.00000                                        
					wwht             n       0.00000       0.00000       0.00000       0.00000       0.00000   10000.00000

corn_comm                1         1  
                                        corn             n       0.00000       0.00000       0.00000       0.00000       0.00000   10000.00000  
past_comm                1         1  
                                        past             y       2.00000   20000.00000       0.00000       0.00000       1.00000   10000.00000 
urbn_cool                1         1
                                   urbn_cool             n       0.00000       0.00000       0.00000       0.00000       0.00000    1000.00000 
