recall.con: written by SWAT+ editor v2.0.4 on 2022-01-21 12:22
      id  name                gis_id          area           lat           lon          elev       rec               wst       cst      ovfl      rule   out_tot       obj_typ    obj_id       hyd_typ          frac  
       1  pt013                   13       0.00001      41.38373     -82.51419     173.00000         1     s41378n82508w         0         0         0         1           sdc         1           tot       1.00000  
       2  pt024                   24       0.00001      41.37394     -82.51718     175.96001         2     s41378n82508w         0         0         0         1           sdc         2           tot       1.00000  
       3  pt026                   26       0.00001      41.37175     -82.51869     179.55000         3     s41378n82508w         0         0         0         1           sdc         3           tot       1.00000  
       4  pt029                   29       0.00001      41.37587     -82.50646     175.09000         4     s41378n82508w         0         0         0         1           sdc         4           tot       1.00000  
       5  pt033                   33       0.00001      41.37391     -82.51779     176.63000         5     s41378n82508w         0         0         0         1           sdc         5           tot       1.00000  
       6  pt034                   34       0.00001      41.37322     -82.50527     180.44000         6     s41378n82508w         0         0         0         1           sdc         6           tot       1.00000  
       7  pt036                   36       0.00001      41.37279     -82.49440     185.00000         7     s41378n82508w         0         0         0         1           sdc         7           tot       1.00000  
       8  pt038                   38       0.00001      41.37713     -82.50220     183.00000         8     s41378n82508w         0         0         0         1           sdc         8           tot       1.00000  
       9  pt039                   39       0.00001      41.37236     -82.51334     173.00000         9     s41378n82508w         0         0         0         1           sdc         9           tot       1.00000  
      10  pt041                   41       0.00001      41.37137     -82.51426     173.00000        10     s41378n82508w         0         0         0         1           sdc        10           tot       1.00000  
      11  pt043                   43       0.00001      41.36962     -82.51387     173.00000        11     s41378n82508w         0         0         0         1           sdc        11           tot       1.00000  
      12  pt045                   45       0.00001      41.36820     -82.51159     174.00000        12     s41378n82508w         0         0         0         1           sdc        12           tot       1.00000  
      13  pt047                   47       0.00001      41.36728     -82.50714     174.00000        13     s41378n82508w         0         0         0         1           sdc        13           tot       1.00000  
      14  pt048                   48       0.00001      41.36659     -82.50655     175.00000        14     s41378n82508w         0         0         0         1           sdc        14           tot       1.00000  
      15  pt050                   50       0.00001      41.36503     -82.50465     174.55000        15     s41378n82508w         0         0         0         1           sdc        15           tot       1.00000  
      16  pt051                   51       0.00001      41.36468     -82.50472     174.99001        16     s41378n82508w         0         0         0         1           sdc        16           tot       1.00000  
      17  pt053                   53       0.00001      41.35842     -82.50788     175.45000        17     s41378n82508w         0         0         0         1           sdc        17           tot       1.00000  
      18  pt055                   55       0.00001      41.35021     -82.51128     176.64999        18     s41378n82508w         0         0         0         1           sdc        18           tot       1.00000  
      19  pt057                   57       0.00001      41.36249     -82.49943     176.28999        19     s41378n82508w         0         0         0         1           sdc        19           tot       1.00000  
      20  pt059                   59       0.00001      41.36007     -82.49953     177.53000        20     s41378n82508w         0         0         0         1           sdc        20           tot       1.00000  
      21  pt061                   61       0.00001      41.35106     -82.50054     182.00000        21     s41378n82508w         0         0         0         1           sdc        21           tot       1.00000  
      22  pt063                   63       0.00001      41.36114     -82.51563     180.39000        22     s41378n82508w         0         0         0         1           sdc        22           tot       1.00000  
      23  pt065                   65       0.00001      41.35441     -82.51936     188.00000        23     s41378n82508w         0         0         0         1           sdc        23           tot       1.00000  
      24  pt067                   67       0.00001      41.36814     -82.51525     179.00000        24     s41378n82508w         0         0         0         1           sdc        24           tot       1.00000  
      25  pt069                   69       0.00001      41.36662     -82.50520     175.00000        25     s41378n82508w         0         0         0         1           sdc        25           tot       1.00000  
      26  pt071                   71       0.00001      41.36394     -82.52336     186.00000        26     s41378n82508w         0         0         0         1           sdc        26           tot       1.00000  
      27  pt073                   73       0.00001      41.35901     -82.52103     187.00000        27     s41378n82508w         0         0         0         1           sdc        27           tot       1.00000  
      28  pt075                   75       0.00001      41.35721     -82.49813     186.25000        28     s41378n82508w         0         0         0         1           sdc        28           tot       1.00000  
      29  pt077                   77       0.00001      41.35835     -82.50801     175.36000        29     s41378n82508w         0         0         0         1           sdc        29           tot       1.00000  
      30  pt079                   79       0.00001      41.35850     -82.49411     187.92999        30     s41378n82508w         0         0         0         1           sdc        30           tot       1.00000  
      31  pt081                   81       0.00001      41.36300     -82.52379     186.00000        31     s41378n82508w         0         0         0         1           sdc        31           tot       1.00000  
      32  pt083                   83       0.00001      41.36344     -82.52285     186.00000        32     s41378n82508w         0         0         0         1           sdc        32           tot       1.00000  
      33  pt085                   85       0.00001      41.36722     -82.51592     183.00000        33     s41378n82508w         0         0         0         1           sdc        33           tot       1.00000  
      34  pt087                   87       0.00001      41.36772     -82.50365     177.20000        34     s41378n82508w         0         0         0         1           sdc        34           tot       1.00000  
      35  pt089                   89       0.00001      41.37107     -82.51481     174.46001        35     s41378n82508w         0         0         0         1           sdc        35           tot       1.00000  
      36  pt091                   91       0.00001      41.36935     -82.49689     184.00000        36     s41378n82508w         0         0         0         1           sdc        36           tot       1.00000  
      37  pt093                   93       0.00001      41.37184     -82.51271     174.00000        37     s41378n82508w         0         0         0         1           sdc        37           tot       1.00000  
      38  pt095                   95       0.00001      41.34880     -82.51241     182.25999        38     s41378n82508w         0         0         0         1           sdc        38           tot       1.00000  
      39  pt096                   96       0.00001      41.34743     -82.51230     181.84000        39     s41378n82508w         0         0         0         1           sdc        39           tot       1.00000  
      40  pt098                   98       0.00001      41.34512     -82.51603     179.00000        40     s41378n82508w         0         0         0         1           sdc        40           tot       1.00000  
      41  pt100                  100       0.00001      41.34345     -82.51988     179.21001        41     s41378n82508w         0         0         0         1           sdc        41           tot       1.00000  
      42  pt102                  102       0.00001      41.34252     -82.52128     180.00000        42     s41378n82508w         0         0         0         1           sdc        42           tot       1.00000  
      43  pt104                  104       0.00001      41.34059     -82.52092     179.62000        43     s41378n82508w         0         0         0         1           sdc        43           tot       1.00000  
      44  pt106                  106       0.00001      41.33615     -82.52251     181.00000        44     s41378n82508w         0         0         0         1           sdc        44           tot       1.00000  
      45  pt108                  108       0.00001      41.34209     -82.51297     179.57001        45     s41378n82508w         0         0         0         1           sdc        45           tot       1.00000  
      46  pt110                  110       0.00001      41.34191     -82.51300     180.00000        46     s41378n82508w         0         0         0         1           sdc        46           tot       1.00000  
      47  pt112                  112       0.00001      41.33859     -82.51145     181.64000        47     s41378n82508w         0         0         0         1           sdc        47           tot       1.00000  
      48  pt114                  114       0.00001      41.33366     -82.50754     186.00000        48     s41378n82508w         0         0         0         1           sdc        48           tot       1.00000  
      49  pt116                  116       0.00001      41.34942     -82.49866     184.00000        49     s41378n82508w         0         0         0         1           sdc        49           tot       1.00000  
      50  pt118                  118       0.00001      41.34749     -82.49331     189.56000        50     s41378n82508w         0         0         0         1           sdc        50           tot       1.00000  
      51  pt120                  120       0.00001      41.34586     -82.49326     191.00000        51     s41378n82508w         0         0         0         1           sdc        51           tot       1.00000  
      52  pt122                  122       0.00001      41.33960     -82.49034     198.00000        52     s41378n82508w         0         0         0         1           sdc        52           tot       1.00000  
      53  pt124                  124       0.00001      41.34076     -82.52600     180.27000        53     s41378n82508w         0         0         0         1           sdc        53           tot       1.00000  
      54  pt126                  126       0.00001      41.33864     -82.52896     182.05000        54     s41378n82508w         0         0         0         1           sdc        54           tot       1.00000  
      55  pt128                  128       0.00001      41.33295     -82.53322     185.00000        55     s41378n82508w         0         0         0         1           sdc        55           tot       1.00000  
      56  pt130                  130       0.00001      41.33492     -82.47689     240.00000        56     s41378n82508w         0         0         0         1           sdc        56           tot       1.00000  
      57  pt132                  132       0.00001      41.34718     -82.50226     184.87000        57     s41378n82508w         0         0         0         1           sdc        57           tot       1.00000  
      58  pt134                  134       0.00001      41.34397     -82.49923     187.00000        58     s41378n82508w         0         0         0         1           sdc        58           tot       1.00000  
      59  pt136                  136       0.00001      41.34319     -82.49950     188.00000        59     s41378n82508w         0         0         0         1           sdc        59           tot       1.00000  
      60  pt138                  138       0.00001      41.34223     -82.49980     188.39000        60     s41378n82508w         0         0         0         1           sdc        60           tot       1.00000  
      61  pt140                  140       0.00001      41.33868     -82.50718     184.78000        61     s41378n82508w         0         0         0         1           sdc        61           tot       1.00000  
      62  pt142                  142       0.00001      41.33784     -82.53167     184.61000        62     s41378n82508w         0         0         0         1           sdc        62           tot       1.00000  
      63  pt144                  144       0.00001      41.33566     -82.51190     184.00000        63     s41378n82508w         0         0         0         1           sdc        63           tot       1.00000  
      64  pt146                  146       0.00001      41.33172     -82.51557     187.71001        64     s41378n82508w         0         0         0         1           sdc        64           tot       1.00000  
      65  pt148                  148       0.00001      41.33438     -82.53902     192.00000        65     s41378n82508w         0         0         0         1           sdc        65           tot       1.00000  
      66  pt150                  150       0.00001      41.33212     -82.50066     198.00000        66     s41378n82508w         0         0         0         1           sdc        66           tot       1.00000  
      67  pt152                  152       0.00001      41.33180     -82.51215     190.25999        67     s41378n82508w         0         0         0         1           sdc        67           tot       1.00000  
      68  pt154                  154       0.00001      41.33285     -82.49395     210.00000        68     s41378n82508w         0         0         0         1           sdc        68           tot       1.00000  
      69  pt156                  156       0.00001      41.34565     -82.49294     191.00000        69     s41378n82508w         0         0         0         1           sdc        69           tot       1.00000  
      70  pt158                  158       0.00001      41.34628     -82.50401     186.28999        70     s41378n82508w         0         0         0         1           sdc        70           tot       1.00000  
      71  pt160                  160       0.00001      41.33988     -82.53638     191.00000        71     s41378n82508w         0         0         0         1           sdc        71           tot       1.00000  
      72  pt162                  162       0.00001      41.33885     -82.53950     191.99001        72     s41378n82508w         0         0         0         1           sdc        72           tot       1.00000  
      73  pt164                  164       0.00001      41.33572     -82.50142     194.00000        73     s41378n82508w         0         0         0         1           sdc        73           tot       1.00000  
      74  pt166                  166       0.00001      41.33820     -82.51542     188.97000        74     s41378n82508w         0         0         0         1           sdc        74           tot       1.00000  
      75  pt168                  168       0.00001      41.33505     -82.48404     237.02000        75     s41378n82508w         0         0         0         1           sdc        75           tot       1.00000  
      76  pt170                  170       0.00001      41.33911     -82.51975     184.23000        76     s41378n82508w         0         0         0         1           sdc        76           tot       1.00000  
      77  pt172                  172       0.00001      41.34115     -82.53906     191.00000        77     s41378n82508w         0         0         0         1           sdc        77           tot       1.00000  
      78  pt174                  174       0.00001      41.33639     -82.49242     200.00000        78     s41378n82508w         0         0         0         1           sdc        78           tot       1.00000  
      79  pt176                  176       0.00001      41.34175     -82.52848     188.44000        79     s41378n82508w         0         0         0         1           sdc        79           tot       1.00000  
      80  pt178                  178       0.00001      41.33937     -82.49756     192.03000        80     s41378n82508w         0         0         0         1           sdc        80           tot       1.00000  
      81  pt180                  180       0.00001      41.34354     -82.51816     179.00000        81     s41378n82508w         0         0         0         1           sdc        81           tot       1.00000  
      82  pt182                  182       0.00001      41.34456     -82.52612     190.00000        82     s41378n82508w         0         0         0         1           sdc        82           tot       1.00000  
      83  pt184                  184       0.00001      41.34145     -82.48657     199.00000        83     s41378n82508w         0         0         0         1           sdc        83           tot       1.00000  
      84  pt186                  186       0.00001      41.34278     -82.49653     190.00000        84     s41378n82508w         0         0         0         1           sdc        84           tot       1.00000  
      85  pt188                  188       0.00001      41.34397     -82.50689     189.00000        85     s41378n82508w         0         0         0         1           sdc        85           tot       1.00000  
      86  pt190                  190       0.00001      41.34493     -82.50403     189.00000        86     s41378n82508w         0         0         0         1           sdc        86           tot       1.00000  
      87  pt192                  192       0.00001      41.34535     -82.49263     191.00000        87     s41378n82508w         0         0         0         1           sdc        87           tot       1.00000  
      88  pt194                  194       0.00001      41.34838     -82.50847     189.00000        88     s41378n82508w         0         0         0         1           sdc        88           tot       1.00000  
      89  pt196                  196       0.00001      41.34680     -82.49102     191.00000        89     s41378n82508w         0         0         0         1           sdc        89           tot       1.00000  
      90  pt198                  198       0.00001      41.34856     -82.49737     189.00000        90     s41378n82508w         0         0         0         1           sdc        90           tot       1.00000  
      91  pt200                  200       0.00001      41.33573     -82.52283     181.97000        91     s41378n82508w         0         0         0         1           sdc        91           tot       1.00000  
      92  pt202                  202       0.00001      41.32510     -82.52804     172.50000        92     s41378n82508w         0         0         0         1           sdc        92           tot       1.00000  
      93  pt204                  204       0.00001      41.32224     -82.52919     186.06000        93     s41378n82508w         0         0         0         1           sdc        93           tot       1.00000  
      94  pt206                  206       0.00001      41.32031     -82.52713     188.00000        94     s41378n82508w         0         0         0         1           sdc        94           tot       1.00000  
      95  pt208                  208       0.00001      41.31755     -82.52669     190.28000        95     s41378n82508w         0         0         0         1           sdc        95           tot       1.00000  
      96  pt210                  210       0.00001      41.32774     -82.50442     181.03000        96     s41378n82508w         0         0         0         1           sdc        96           tot       1.00000  
      97  pt212                  212       0.00001      41.32637     -82.50347     195.69000        97     s41378n82508w         0         0         0         1           sdc        97           tot       1.00000  
      98  pt214                  214       0.00001      41.32189     -82.49691     210.25000        98     s41378n82508w         0         0         0         1           sdc        98           tot       1.00000  
      99  pt215                  215       0.00001      41.31576     -82.49615     221.66000        99     s41378n82508w         0         0         0         1           sdc        99           tot       1.00000  
     100  pt217                  217       0.00001      41.31897     -82.49152     227.07001       100     s41378n82508w         0         0         0         1           sdc       100           tot       1.00000  
     101  pt219                  219       0.00001      41.32061     -82.48913     229.00000       101     s41378n82508w         0         0         0         1           sdc       101           tot       1.00000  
     102  pt221                  221       0.00001      41.32206     -82.48667     230.00000       102     s41378n82508w         0         0         0         1           sdc       102           tot       1.00000  
     103  pt223                  223       0.00001      41.32081     -82.48338     231.00000       103     s41378n82508w         0         0         0         1           sdc       103           tot       1.00000  
     104  pt225                  225       0.00001      41.31991     -82.48258     231.64999       104     s41378n82508w         0         0         0         1           sdc       104           tot       1.00000  
     105  pt227                  227       0.00001      41.30910     -82.47847     239.00000       105     s41378n82508w         0         0         0         1           sdc       105           tot       1.00000  
     106  pt229                  229       0.00001      41.33156     -82.53543     185.67000       106     s41378n82508w         0         0         0         1           sdc       106           tot       1.00000  
     107  pt231                  231       0.00001      41.32639     -82.51891     195.46001       107     s41378n82508w         0         0         0         1           sdc       107           tot       1.00000  
     108  pt233                  233       0.00001      41.32547     -82.53842     191.32001       108     s41378n82508w         0         0         0         1           sdc       108           tot       1.00000  
     109  pt235                  235       0.00001      41.32526     -82.53980     190.52000       109     s41378n82508w         0         0         0         1           sdc       109           tot       1.00000  
     110  pt237                  237       0.00001      41.32259     -82.54019     191.59000       110     s41378n82508w         0         0         0         1           sdc       110           tot       1.00000  
     111  pt239                  239       0.00001      41.32129     -82.53813     192.34000       111     s41378n82508w         0         0         0         1           sdc       111           tot       1.00000  
     112  pt241                  241       0.00001      41.31439     -82.53776     198.00000       112     s41378n82508w         0         0         0         1           sdc       112           tot       1.00000  
     113  pt243                  243       0.00001      41.31520     -82.50878     222.19000       113     s41378n82508w         0         0         0         1           sdc       113           tot       1.00000  
     114  pt245                  245       0.00001      41.31855     -82.53440     195.00000       114     s41378n82508w         0         0         0         1           sdc       114           tot       1.00000  
     115  pt247                  247       0.00001      41.31427     -82.51869     210.78999       115     s41378n82508w         0         0         0         1           sdc       115           tot       1.00000  
     116  pt249                  249       0.00001      41.32001     -82.54397     193.20000       116     s41378n82508w         0         0         0         1           sdc       116           tot       1.00000  
     117  pt251                  251       0.00001      41.31328     -82.49578     231.00000       117     s41378n82508w         0         0         0         1           sdc       117           tot       1.00000  
     118  pt253                  253       0.00001      41.32279     -82.47911     235.00000       118     s41378n82508w         0         0         0         1           sdc       118           tot       1.00000  
     119  pt255                  255       0.00001      41.32240     -82.47456     236.41000       119     s41378n82508w         0         0         0         1           sdc       119           tot       1.00000  
     120  pt257                  257       0.00001      41.32187     -82.47211     237.00000       120     s41378n82508w         0         0         0         1           sdc       120           tot       1.00000  
     121  pt259                  259       0.00001      41.32127     -82.47162     237.00000       121     s41378n82508w         0         0         0         1           sdc       121           tot       1.00000  
     122  pt261                  261       0.00001      41.32644     -82.51428     182.78000       122     s41378n82508w         0         0         0         1           sdc       122           tot       1.00000  
     123  pt263                  263       0.00001      41.31842     -82.46682     239.00000       123     s41378n82508w         0         0         0         1           sdc       123           tot       1.00000  
     124  pt265                  265       0.00001      41.31835     -82.46622     239.00000       124     s41378n82508w         0         0         0         1           sdc       124           tot       1.00000  
     125  pt267                  267       0.00001      41.31753     -82.46528     239.52000       125     s41378n82508w         0         0         0         1           sdc       125           tot       1.00000  
     126  pt269                  269       0.00001      41.32514     -82.54214     189.09000       126     s41378n82508w         0         0         0         1           sdc       126           tot       1.00000  
     127  pt271                  271       0.00001      41.31844     -82.47301     238.00000       127     s41378n82508w         0         0         0         1           sdc       127           tot       1.00000  
     128  pt273                  273       0.00001      41.32416     -82.52433     187.89999       128     s41378n82508w         0         0         0         1           sdc       128           tot       1.00000  
     129  pt275                  275       0.00001      41.32704     -82.51064     197.39000       129     s41378n82508w         0         0         0         1           sdc       129           tot       1.00000  
     130  pt277                  277       0.00001      41.32868     -82.49378     222.77000       130     s41378n82508w         0         0         0         1           sdc       130           tot       1.00000  
     131  pt279                  279       0.00001      41.31662     -82.46181     240.00000       131     s41378n82508w         0         0         0         1           sdc       131           tot       1.00000  
     132  pt281                  281       0.00001      41.32387     -82.52329     189.00000       132     s41378n82508w         0         0         0         1           sdc       132           tot       1.00000  
     133  pt283                  283       0.00001      41.32093     -82.51084     208.25999       133     s41378n82508w         0         0         0         1           sdc       133           tot       1.00000  
     134  pt285                  285       0.00001      41.32194     -82.47112     237.00000       134     s41378n82508w         0         0         0         1           sdc       134           tot       1.00000  
     135  pt287                  287       0.00001      41.32225     -82.46972     237.00000       135     s41378n82508w         0         0         0         1           sdc       135           tot       1.00000  
     136  pt289                  289       0.00001      41.32721     -82.50878     197.89999       136     s41378n82508w         0         0         0         1           sdc       136           tot       1.00000  
     137  pt291                  291       0.00001      41.32032     -82.54002     194.00000       137     s41378n82508w         0         0         0         1           sdc       137           tot       1.00000  