rout_unit.def: written by SWAT+ editor v2.0.4 on 2022-01-21 12:22
      id              name  elem_tot  elements  
       1           rtu0011         1         1  
       2           rtu0021         2         2        -7  
       3           rtu0022         2         8       -16  
       4           rtu0031         2        37       -43  
       5           rtu0032         2        44       -47  
       6           rtu0041         2       143      -146  
       7           rtu0042         2       147      -149  
       8           rtu0051         2       157      -160  
       9           rtu0052         2       150      -156  
      10           rtu0061         2        17       -21  
      11           rtu0062         2        22       -36  
      12           rtu0071         2       173      -175  
      13           rtu0072         2       161      -172  
      14           rtu0081         2       229      -230  
      15           rtu0082         2       211      -228  
      16           rtu0091         2        85       -88  
      17           rtu0092         2        77       -84  
      18           rtu0101         2        93       -94  
      19           rtu0102         2        89       -92  
      20           rtu0111         2       176      -178  
      21           rtu0112         2       179      -183  
      22           rtu0121         2       208      -210  
      23           rtu0122         2       193      -207  
      24           rtu0131         2       190      -192  
      25           rtu0132         2       184      -189  
      26           rtu0141         2       132      -142  
      27           rtu0142         2        95      -131  
      28           rtu0151         2        70       -76  
      29           rtu0152         2        48       -69  
      30           rtu0161         2       234      -237  
      31           rtu0162         2       231      -233  
      32           rtu0171         2       241      -245  
      33           rtu0172         2       238      -240  
      34           rtu0181         2       275      -278  
      35           rtu0191         2       279      -285  
      36           rtu0201         2       492      -502  
      37           rtu0202         2       483      -491  
      38           rtu0211         2       456      -462  
      39           rtu0212         2       463      -466  
      40           rtu0221         2       467      -471  
      41           rtu0222         2       472      -482  
      42           rtu0231         2       782      -790  
      43           rtu0232         2       765      -781  
      44           rtu0241         2       791      -817  
      45           rtu0242         2       818      -843  
      46           rtu0251         2       873      -899  
      47           rtu0252         2       900      -931  
      48           rtu0261         2       685      -693  
      49           rtu0262         2       658      -684  
      50           rtu0271         2       704      -706  
      51           rtu0272         2       694      -703  
      52           rtu0281         2       736      -739  
      53           rtu0282         2       707      -735  
      54           rtu0291         2       503      -511  
      55           rtu0292         2       512      -550  
      56           rtu0301         2       581      -592  
      57           rtu0302         2       593      -616  
      58           rtu0311         2       286      -289  
      59           rtu0312         2       290      -291  
      60           rtu0321         2       450      -455  
      61           rtu0322         2       439      -449  
      62           rtu0331         2       327      -338  
      63           rtu0332         2       292      -326  
      64           rtu0341         2       571      -580  
      65           rtu0342         2       551      -570  
      66           rtu0351         2       740      -744  
      67           rtu0352         2       745      -764  
      68           rtu0361         2       866      -872  
      69           rtu0362         2       844      -865  
      70           rtu0371         2       653      -657  
      71           rtu0372         2       617      -652  
      72           rtu0381         1       377  
      73           rtu0382         2       378      -383  
      74           rtu0391         1       376  
      75           rtu0392         2       364      -375  
      76           rtu0401         2       339      -341  
      77           rtu0402         2       342      -363  
      78           rtu0411         2       435      -438  
      79           rtu0412         2       425      -434  
      80           rtu0421         2       255      -258  
      81           rtu0422         2       259      -274  
      82           rtu0431         2       417      -424  
      83           rtu0432         2       384      -416  
      84           rtu0441         2       246      -249  
      85           rtu0442         2       250      -254  
      86           rtu0451         2       976      -984  
      87           rtu0452         2       961      -975  
      88           rtu0461         2      1581     -1598  
      89           rtu0462         2      1599     -1607  
      90           rtu0471         2      1625     -1632  
      91           rtu0472         2      1608     -1624  
      92           rtu0481         2      1668     -1671  
      93           rtu0482         2      1659     -1667  
      94           rtu0491         2      1691     -1696  
      95           rtu0492         2      1697     -1710  
      96           rtu0501         2      2771     -2778  
      97           rtu0502         2      2779     -2786  
      98           rtu0511         2      2787     -2793  
      99           rtu0512         2      2794     -2814  
     100           rtu0521         2      1711     -1722  
     101           rtu0522         2      1723     -1738  
     102           rtu0531         1      1739  
     103           rtu0532         2      1740     -1741  
     104           rtu0541         2      1787     -1794  
     105           rtu0542         2      1795     -1806  
     106           rtu0551         2      3721     -3740  
     107           rtu0552         2      3741     -3754  
     108           rtu0561         2      1024     -1028  
     109           rtu0562         2      1029     -1043  
     110           rtu0571         2      1011     -1023  
     111           rtu0572         2       985     -1010  
     112           rtu0581         2      1091     -1099  
     113           rtu0582         2      1079     -1090  
     114           rtu0591         2      1140     -1145  
     115           rtu0592         2      1146     -1156  
     116           rtu0601         2      1940     -1943  
     117           rtu0602         2      1929     -1939  
     118           rtu0611         2      2010     -2011  
     119           rtu0612         2      2012     -2033  
     120           rtu0621         2      2094     -2102  
     121           rtu0622         2      2061     -2093  
     122           rtu0631         2      1267     -1283  
     123           rtu0632         2      1209     -1266  
     124           rtu0641         2      1308     -1311  
     125           rtu0642         2      1284     -1307  
     126           rtu0651         2      1332     -1338  
     127           rtu0652         2      1339     -1368  
     128           rtu0661         1      1436  
     129           rtu0662         2      1437     -1444  
     130           rtu0671         1      1445  
     131           rtu0672         2      1446     -1452  
     132           rtu0681         2      1742     -1745  
     133           rtu0682         2      1746     -1770  
     134           rtu0691         2      2059     -2060  
     135           rtu0692         2      2046     -2058  
     136           rtu0701         2      3341     -3346  
     137           rtu0702         2      3347     -3366  
     138           rtu0711         2      3367     -3373  
     139           rtu0712         2      3374     -3409  
     140           rtu0721         2      2141     -2151  
     141           rtu0722         2      2103     -2140  
     142           rtu0731         2      1868     -1882  
     143           rtu0732         2      1883     -1928  
     144           rtu0741         2      3410     -3415  
     145           rtu0742         2      3416     -3463  
     146           rtu0751         2      1518     -1533  
     147           rtu0752         2      1534     -1580  
     148           rtu0761         2      1109     -1110  
     149           rtu0762         2      1100     -1108  
     150           rtu0771         2      1325     -1331  
     151           rtu0772         2      1312     -1324  
     152           rtu0781         2      1988     -1997  
     153           rtu0782         2      1966     -1987  
     154           rtu0791         2      2044     -2045  
     155           rtu0792         2      2034     -2043  
     156           rtu0801         2      1859     -1867  
     157           rtu0802         2      1807     -1858  
     158           rtu0811         2      1771     -1773  
     159           rtu0812         2      1774     -1786  
     160           rtu0821         2      1202     -1208  
     161           rtu0822         2      1177     -1201  
     162           rtu0831         2      2815     -2819  
     163           rtu0832         2      2820     -2832  
     164           rtu0841         2      2008     -2009  
     165           rtu0842         2      1998     -2007  
     166           rtu0851         2      1453     -1464  
     167           rtu0852         2      1465     -1492  
     168           rtu0861         2      1960     -1965  
     169           rtu0862         2      1944     -1959  
     170           rtu0871         2      1514     -1517  
     171           rtu0872         2      1493     -1513  
     172           rtu0881         2      1672     -1674  
     173           rtu0882         2      1675     -1690  
     174           rtu0891         2      1649     -1658  
     175           rtu0892         2      1633     -1648  
     176           rtu0901         2      1129     -1139  
     177           rtu0902         2      1111     -1128  
     178           rtu0911         2      1430     -1435  
     179           rtu0912         2      1402     -1429  
     180           rtu0921         2      1387     -1390  
     181           rtu0922         2      1369     -1386  
     182           rtu0931         2      1391     -1395  
     183           rtu0932         2      1396     -1401  
     184           rtu0941         2      1157     -1158  
     185           rtu0942         2      1159     -1176  
     186           rtu0951         2       951      -960  
     187           rtu0952         2       932      -950  
     188           rtu0961         2      1076     -1078  
     189           rtu0962         2      1065     -1075  
     190           rtu0971         2      1044     -1048  
     191           rtu0972         2      1049     -1064  
     192           rtu0981         2      2858     -2861  
     193           rtu0982         2      2862     -2879  
     194           rtu0991         2      2880     -2904  
     195           rtu0992         2      2905     -2959  
     196           rtu1001         2      3194     -3198  
     197           rtu1002         2      3172     -3193  
     198           rtu1011         2      3271     -3275  
     199           rtu1012         2      3276     -3294  
     200           rtu1021         2      5254     -5262  
     201           rtu1022         2      5263     -5282  
     202           rtu1031         2      3805     -3826  
     203           rtu1032         2      3827     -3864  
     204           rtu1041         2      3963     -3970  
     205           rtu1042         2      3971     -3978  
     206           rtu1051         2      3979     -3992  
     207           rtu1052         2      3993     -4019  
     208           rtu1061         2      4831     -4840  
     209           rtu1062         2      4812     -4830  
     210           rtu1071         2      4776     -4784  
     211           rtu1072         2      4746     -4775  
     212           rtu1081         2      4699     -4714  
     213           rtu1082         2      4681     -4698  
     214           rtu1091         2      4639     -4643  
     215           rtu1092         2      4623     -4638  
     216           rtu1101         2      4666     -4680  
     217           rtu1102         2      4644     -4665  
     218           rtu1111         2      4880     -4890  
     219           rtu1112         2      4891     -4893  
     220           rtu1121         2      4894     -4932  
     221           rtu1122         2      4933     -4986  
     222           rtu1131         2      2174     -2180  
     223           rtu1132         2      2152     -2173  
     224           rtu1141         2      2960     -2979  
     225           rtu1142         2      2980     -3029  
     226           rtu1151         2      2231     -2242  
     227           rtu1152         2      2243     -2284  
     228           rtu1161         2      2353     -2357  
     229           rtu1162         2      2348     -2352  
     230           rtu1171         2      2366     -2373  
     231           rtu1172         2      2374     -2386  
     232           rtu1181         2      2424     -2426  
     233           rtu1182         2      2406     -2423  
     234           rtu1191         2      2492     -2494  
     235           rtu1192         2      2460     -2491  
     236           rtu1201         2      3088     -3104  
     237           rtu1202         2      3046     -3087  
     238           rtu1211         2      3334     -3340  
     239           rtu1212         2      3295     -3333  
     240           rtu1221         2      5028     -5036  
     241           rtu1222         2      4987     -5027  
     242           rtu1231         2      2427     -2441  
     243           rtu1232         2      2442     -2459  
     244           rtu1241         2      5419     -5426  
     245           rtu1242         2      5427     -5454  
     246           rtu1251         2      4364     -4375  
     247           rtu1252         2      4332     -4363  
     248           rtu1261         2      4235     -4238  
     249           rtu1262         2      4214     -4234  
     250           rtu1271         2      4298     -4301  
     251           rtu1272         2      4283     -4297  
     252           rtu1281         2      4376     -4377  
     253           rtu1291         2      3484     -3494  
     254           rtu1292         2      3495     -3529  
     255           rtu1301         2      4391     -4394  
     256           rtu1302         2      4378     -4390  
     257           rtu1311         2      4413     -4414  
     258           rtu1312         2      4409     -4412  
     259           rtu1321         2      4428     -4430  
     260           rtu1322         2      4431     -4442  
     261           rtu1331         2      2364     -2365  
     262           rtu1332         2      2358     -2363  
     263           rtu1341         2      4406     -4408  
     264           rtu1342         2      4395     -4405  
     265           rtu1351         2      3120     -3123  
     266           rtu1352         2      3105     -3119  
     267           rtu1361         2      3567     -3568  
     268           rtu1362         2      3558     -3566  
     269           rtu1371         2      3904     -3913  
     270           rtu1372         2      3865     -3903  
     271           rtu1381         2      4514     -4518  
     272           rtu1382         2      4501     -4513  
     273           rtu1391         1      3203  
     274           rtu1392         2      3199     -3202  
     275           rtu1401         2      3656     -3662  
     276           rtu1402         2      3634     -3655  
     277           rtu1411         2      4307     -4309  
     278           rtu1412         2      4302     -4306  
     279           rtu1421         2      4251     -4254  
     280           rtu1422         2      4239     -4250  
     281           rtu1431         2      3556     -3557  
     282           rtu1432         2      3549     -3555  
     283           rtu1441         2      2495     -2499  
     284           rtu1442         2      2500     -2509  
     285           rtu1451         2      4571     -4575  
     286           rtu1452         2      4556     -4570  
     287           rtu1461         2      4494     -4500  
     288           rtu1462         2      4470     -4493  
     289           rtu1471         2      2344     -2347  
     290           rtu1472         2      2321     -2343  
     291           rtu1481         2      3204     -3208  
     292           rtu1482         2      3209     -3240  
     293           rtu1491         2      4785     -4792  
     294           rtu1492         2      4793     -4811  
     295           rtu1501         2      3695     -3698  
     296           rtu1502         2      3699     -3720  
     297           rtu1511         2      3691     -3694  
     298           rtu1512         2      3663     -3690  
     299           rtu1521         2      3241     -3243  
     300           rtu1522         2      3244     -3270  
     301           rtu1531         2      2403     -2405  
     302           rtu1532         2      2387     -2402  
     303           rtu1541         2      3164     -3171  
     304           rtu1542         2      3124     -3163  
     305           rtu1551         2      4535     -4536  
     306           rtu1552         2      4537     -4555  
     307           rtu1561         2      4443     -4444  
     308           rtu1562         2      4445     -4469  
     309           rtu1571         2      4715     -4721  
     310           rtu1572         2      4722     -4745  
     311           rtu1581         2      2311     -2320  
     312           rtu1582         2      2285     -2310  
     313           rtu1591         1      4427  
     314           rtu1592         2      4415     -4426  
     315           rtu1601         1      4519  
     316           rtu1602         2      4520     -4534  
     317           rtu1611         2      3595     -3601  
     318           rtu1612         2      3602     -3633  
     319           rtu1621         2      4870     -4879  
     320           rtu1622         2      4841     -4869  
     321           rtu1631         2      4329     -4331  
     322           rtu1632         2      4310     -4328  
     323           rtu1641         2      4020     -4027  
     324           rtu1642         2      4028     -4049  
     325           rtu1651         1      3045  
     326           rtu1652         2      3030     -3044  
     327           rtu1661         2      4281     -4282  
     328           rtu1662         2      4255     -4280  
     329           rtu1671         2      3569     -3573  
     330           rtu1672         2      3574     -3594  
     331           rtu1681         2      3547     -3548  
     332           rtu1682         2      3530     -3546  
     333           rtu1691         2      2209     -2214  
     334           rtu1692         2      2215     -2230  
     335           rtu1701         2      4175     -4181  
     336           rtu1702         2      4154     -4174  
     337           rtu1711         2      4208     -4213  
     338           rtu1712         2      4182     -4207  
     339           rtu1721         2      3914     -3926  
     340           rtu1722         2      3927     -3962  
     341           rtu1731         2      2203     -2208  
     342           rtu1732         2      2181     -2202  
     343           rtu1741         2      4148     -4153  
     344           rtu1742         2      4114     -4147  
     345           rtu1751         2      4615     -4622  
     346           rtu1752         2      4576     -4614  
     347           rtu1761         2      3481     -3483  
     348           rtu1762         2      3464     -3480  
     349           rtu1771         2      4100     -4113  
     350           rtu1772         2      4050     -4099  
     351           rtu1781         2      3776     -3780  
     352           rtu1782         2      3755     -3775  
     353           rtu1791         2      3798     -3804  
     354           rtu1792         2      3781     -3797  
     355           rtu1801         2      2855     -2857  
     356           rtu1802         2      2833     -2854  
     357           rtu1811         2      5305     -5310  
     358           rtu1812         2      5283     -5304  
     359           rtu1821         2      6462     -6469  
     360           rtu1822         2      6470     -6497  
     361           rtu1831         2      6568     -6570  
     362           rtu1832         2      6562     -6567  
     363           rtu1841         2      6546     -6561  
     364           rtu1842         2      6498     -6545  
     365           rtu1851         2      6708     -6715  
     366           rtu1852         2      6675     -6707  
     367           rtu1861         2      6794     -6799  
     368           rtu1862         2      6800     -6811  
     369           rtu1871         2      6913     -6919  
     370           rtu1872         2      6888     -6912  
     371           rtu1881         2      8648     -8654  
     372           rtu1882         2      8610     -8647  
     373           rtu1891         1      7715  
     374           rtu1901         2      6940     -6952  
     375           rtu1902         2      6920     -6939  
     376           rtu1911         2      7001     -7022  
     377           rtu1912         2      6953     -7000  
     378           rtu1921         2      7102     -7122  
     379           rtu1922         2      7052     -7101  
     380           rtu1931         2      7172     -7181  
     381           rtu1932         2      7149     -7171  
     382           rtu1941         2      7716     -7718  
     383           rtu1942         2      7719     -7728  
     384           rtu1951         2      7729     -7740  
     385           rtu1952         2      7741     -7782  
     386           rtu1961         2      7857     -7864  
     387           rtu1962         2      7832     -7856  
     388           rtu1971         2      8182     -8184  
     389           rtu1972         2      8185     -8186  
     390           rtu1981         2      8068     -8071  
     391           rtu1982         2      8047     -8067  
     392           rtu1991         2      8364     -8371  
     393           rtu1992         2      8372     -8394  
     394           rtu2001         2      8655     -8660  
     395           rtu2002         2      8661     -8674  
     396           rtu2011         2      8415     -8419  
     397           rtu2012         2      8420     -8429  
     398           rtu2021         2      8102     -8129  
     399           rtu2022         2      8130     -8181  
     400           rtu2031         2      5656     -5676  
     401           rtu2032         2      5622     -5655  
     402           rtu2041         2      5763     -5779  
     403           rtu2042         2      5780     -5812  
     404           rtu2051         2      5874     -5882  
     405           rtu2052         2      5833     -5873  
     406           rtu2061         2      5974     -5976  
     407           rtu2062         2      5969     -5973  
     408           rtu2071         2      6232     -6235  
     409           rtu2072         2      6236     -6238  
     410           rtu2081         2      5967     -5968  
     411           rtu2082         2      5951     -5966  
     412           rtu2091         2      8215     -8222  
     413           rtu2092         2      8187     -8214  
     414           rtu2101         2      5934     -5939  
     415           rtu2102         2      5907     -5933  
     416           rtu2111         2      6283     -6294  
     417           rtu2112         2      6239     -6282  
     418           rtu2121         2      6339     -6343  
     419           rtu2122         2      6344     -6386  
     420           rtu2131         2      8239     -8248  
     421           rtu2132         2      8249     -8272  
     422           rtu2141         2      5983     -5987  
     423           rtu2142         2      5988     -6029  
     424           rtu2151         2      6118     -6121  
     425           rtu2152         2      6101     -6117  
     426           rtu2161         2      6417     -6431  
     427           rtu2162         2      6432     -6461  
     428           rtu2171         1      8292  
     429           rtu2172         2      8283     -8291  
     430           rtu2181         2      6879     -6887  
     431           rtu2182         2      6841     -6878  
     432           rtu2191         1      7182  
     433           rtu2192         1      7183  
     434           rtu2201         2      8412     -8414  
     435           rtu2202         2      8395     -8411  
     436           rtu2211         2      5092     -5093  
     437           rtu2212         2      5079     -5091  
     438           rtu2221         2      6571     -6574  
     439           rtu2222         2      6575     -6584  
     440           rtu2231         2      5462     -5463  
     441           rtu2232         2      5455     -5461  
     442           rtu2241         2      2510     -2515  
     443           rtu2242         2      2516     -2523  
     444           rtu2251         2      2594     -2599  
     445           rtu2252         2      2582     -2593  
     446           rtu2261         2      5072     -5078  
     447           rtu2262         2      5037     -5071  
     448           rtu2271         2      2634     -2635  
     449           rtu2272         2      2636     -2641  
     450           rtu2281         2      5977     -5978  
     451           rtu2282         2      5979     -5982  
     452           rtu2291         2      5235     -5237  
     453           rtu2292         2      5227     -5234  
     454           rtu2301         2      5484     -5489  
     455           rtu2302         2      5464     -5483  
     456           rtu2311         2      6738     -6744  
     457           rtu2312         2      6716     -6737  
     458           rtu2321         2      2642     -2646  
     459           rtu2322         2      2647     -2661  
     460           rtu2331         2      2678     -2681  
     461           rtu2332         2      2682     -2689  
     462           rtu2341         2      2662     -2667  
     463           rtu2342         2      2668     -2677  
     464           rtu2351         2      5902     -5906  
     465           rtu2352         2      5883     -5901  
     466           rtu2361         2      5549     -5550  
     467           rtu2362         2      5547     -5548  
     468           rtu2371         2      5315     -5319  
     469           rtu2372         2      5311     -5314  
     470           rtu2381         2      6625     -6641  
     471           rtu2382         2      6642     -6674  
     472           rtu2391         2      8097     -8101  
     473           rtu2392         2      8072     -8096  
     474           rtu2401         2      6122     -6123  
     475           rtu2402         2      6124     -6146  
     476           rtu2411         2      8281     -8282  
     477           rtu2412         2      8273     -8280  
     478           rtu2421         2      6411     -6416  
     479           rtu2422         2      6387     -6410  
     480           rtu2431         2      6812     -6816  
     481           rtu2432         2      6817     -6840  
     482           rtu2441         2      6047     -6053  
     483           rtu2442         2      6054     -6091  
     484           rtu2451         2      8237     -8238  
     485           rtu2452         2      8223     -8236  
     486           rtu2461         2      6765     -6769  
     487           rtu2462         2      6770     -6793  
     488           rtu2471         2      7123     -7128  
     489           rtu2472         2      7129     -7148  
     490           rtu2481         2      6336     -6338  
     491           rtu2482         2      6314     -6335  
     492           rtu2491         2      7783     -7794  
     493           rtu2492         2      7795     -7831  
     494           rtu2501         2      6761     -6764  
     495           rtu2502         2      6745     -6760  
     496           rtu2511         2      2759     -2760  
     497           rtu2512         2      2749     -2758  
     498           rtu2521         2      6092     -6093  
     499           rtu2522         2      6094     -6100  
     500           rtu2531         2      2743     -2748  