rout_unit.con: written by SWAT+ editor v2.0.4 on 2022-01-21 12:22
      id  name                gis_id          area           lat           lon          elev       rtu               wst       cst      ovfl      rule   out_tot       obj_typ    obj_id       hyd_typ          frac  
       1  rtu0011                 11       0.02000      41.38381     -82.51412     173.50000         1     s41378n82508w         0         0         0         2           sdc         1           tot       1.00000           aqu         1           rhg       1.00000  
       2  rtu0021                 21       2.39000      41.38260     -82.51349     176.50628         2     s41378n82508w         0         0         0         2           res         3           tot       1.00000           aqu         1           rhg       1.00000  
       3  rtu0022                 22       7.41000      41.38202     -82.51078     179.50202         3     s41378n82508w         0         0         0         4           res         3           sur       0.76000            ru         2           sur       0.24000            ru         2           lat       1.00000           aqu         2           rhg       1.00000  
       4  rtu0031                 31       3.70000      41.38012     -82.51138     178.88378         4     s41378n82508w         0         0         0         2           res         3           tot       1.00000           aqu         1           rhg       1.00000  
       5  rtu0032                 32       2.50000      41.38003     -82.50959     182.50000         5     s41378n82508w         0         0         0         4           res         3           sur       0.40000            ru         4           sur       0.60000            ru         4           lat       1.00000           aqu         2           rhg       1.00000  
       6  rtu0041                 41       0.91000      41.37605     -82.51023     178.41758         6     s41378n82508w         0         0         0         2           res         2           tot       1.00000           aqu         1           rhg       1.00000  
       7  rtu0042                 42       0.66000      41.37671     -82.51253     180.62121         7     s41378n82508w         0         0         0         4           res         2           sur       0.42000            ru         6           sur       0.58000            ru         6           lat       1.00000           aqu         2           rhg       1.00000  
       8  rtu0051                 51       1.48000      41.37340     -82.51342     178.68919         8     s41378n82508w         0         0         0         2           res         1           tot       1.00000           aqu         1           rhg       1.00000  
       9  rtu0052                 52       2.67000      41.37420     -82.51459     181.97378         9     s41378n82508w         0         0         0         4           res         1           sur       0.64000            ru         8           sur       0.36000            ru         8           lat       1.00000           aqu         2           rhg       1.00000  
      10  rtu0061                 61       0.43000      41.38196     -82.51529     176.67442        10     s41378n82508w         0         0         0         2           res         3           tot       1.00000           aqu         1           rhg       1.00000  
      11  rtu0062                 62      21.08000      41.37794     -82.51695     181.64231        11     s41378n82508w         0         0         0         4           res         3           sur       0.98000            ru        10           sur       0.02000            ru        10           lat       1.00000           aqu         2           rhg       1.00000  
      12  rtu0071                 71       0.15000      41.37415     -82.51686     177.86667        12     s41378n82508w         0         0         0         2           sdc         2           tot       1.00000           aqu         1           rhg       1.00000  
      13  rtu0072                 72       5.40000      41.37545     -82.51958     184.29074        13     s41378n82508w         0         0         0         4           sdc         2           sur       0.97000            ru        12           sur       0.03000            ru        12           lat       1.00000           aqu         2           rhg       1.00000  
      14  rtu0081                 81       0.28000      41.37285     -82.51796     177.21429        14     s41378n82508w         0         0         0         2           sdc         3           tot       1.00000           aqu         1           rhg       1.00000  
      15  rtu0082                 82      16.70000      41.37117     -82.51947     184.62275        15     s41378n82508w         0         0         0         4           sdc         3           sur       0.98000            ru        14           sur       0.02000            ru        14           lat       1.00000           aqu         2           rhg       1.00000  
      16  rtu0091                 91       1.85000      41.37734     -82.50966     178.95676        16     s41378n82508w         0         0         0         2           res         2           tot       1.00000           aqu         1           rhg       1.00000  
      17  rtu0092                 92       7.98000      41.37742     -82.50822     182.74311        17     s41378n82508w         0         0         0         4           res         2           sur       0.81000            ru        16           sur       0.19000            ru        16           lat       1.00000           aqu         2           rhg       1.00000  
      18  rtu0101                101       0.25000      41.37600     -82.50742     175.00000        18     s41378n82508w         0         0         0         2           sdc         4           tot       1.00000           aqu         1           rhg       1.00000  
      19  rtu0102                102       4.03000      41.37642     -82.50694     181.62283        19     s41378n82508w         0         0         0         4           sdc         4           sur       0.94000            ru        18           sur       0.06000            ru        18           lat       1.00000           aqu         2           rhg       1.00000  
      20  rtu0111                111       0.86000      41.37436     -82.51036     179.50000        20     s41378n82508w         0         0         0         2           res         1           tot       1.00000           aqu         1           rhg       1.00000  
      21  rtu0112                112       6.90000      41.37256     -82.50879     181.98116        21     s41378n82508w         0         0         0         4           res         1           sur       0.89000            ru        20           sur       0.11000            ru        20           lat       1.00000           aqu         2           rhg       1.00000  
      22  rtu0121                121       0.05000      41.37392     -82.51754     175.80000        22     s41378n82508w         0         0         0         2           sdc         5           tot       1.00000           aqu         1           rhg       1.00000  
      23  rtu0122                122      13.42000      41.37361     -82.52091     184.60656        23     s41378n82508w         0         0         0         3           sdc         5           sur       1.00000            ru        22           lat       1.00000           aqu         2           rhg       1.00000  
      24  rtu0131                131       0.34000      41.37332     -82.50716     176.29412        24     s41378n82508w         0         0         0         2           sdc         6           tot       1.00000           aqu         1           rhg       1.00000  
      25  rtu0132                132      16.61000      41.37233     -82.50514     184.01565        25     s41378n82508w         0         0         0         4           sdc         6           sur       0.98000            ru        24           sur       0.02000            ru        24           lat       1.00000           aqu         2           rhg       1.00000  
      26  rtu0141                141       1.12000      41.37425     -82.50011     181.20536        26     s41378n82508w         0         0         0         2           sdc         7           tot       1.00000           aqu         1           rhg       1.00000  
      27  rtu0142                142      51.13000      41.37362     -82.49810     184.49892        27     s41378n82508w         0         0         0         4           sdc         7           sur       0.98000            ru        26           sur       0.02000            ru        26           lat       1.00000           aqu         2           rhg       1.00000  
      28  rtu0151                151       0.40000      41.37675     -82.50431     179.50000        28     s41378n82508w         0         0         0         2           sdc         8           tot       1.00000           aqu         1           rhg       1.00000  
      29  rtu0152                152      23.01000      41.37729     -82.50155     183.55411        29     s41378n82508w         0         0         0         4           sdc         8           sur       0.98000            ru        28           sur       0.02000            ru        28           lat       1.00000           aqu         2           rhg       1.00000  
      30  rtu0161                161       0.89000      41.37266     -82.51380     179.14607        30     s41378n82508w         0         0         0         2           sdc         9           tot       1.00000           aqu         1           rhg       1.00000  
      31  rtu0162                162       0.32000      41.37297     -82.51507     185.46875        31     s41378n82508w         0         0         0         4           sdc         9           sur       0.26000            ru        30           sur       0.74000            ru        30           lat       1.00000           aqu         2           rhg       1.00000  
      32  rtu0171                171       2.16000      41.37191     -82.51448     178.27778        32     s41378n82508w         0         0         0         2           sdc        10           tot       1.00000           aqu         1           rhg       1.00000  
      33  rtu0172                172       2.21000      41.37205     -82.51606     185.32579        33     s41378n82508w         0         0         0         4           sdc        10           sur       0.51000            ru        32           sur       0.49000            ru        32           lat       1.00000           aqu         2           rhg       1.00000  
      34  rtu0181                181       2.40000      41.37031     -82.51391     176.12500        34     s41378n82508w         0         0         0         2           sdc        11           tot       1.00000           aqu         1           rhg       1.00000  
      35  rtu0191                191       4.71000      41.36888     -82.51208     176.59448        35     s41378n82508w         0         0         0         2           sdc        12           tot       1.00000           aqu         1           rhg       1.00000  
      36  rtu0201                201       7.88000      41.36804     -82.50864     175.56218        36     s41378n82508w         0         0         0         2           sdc        13           tot       1.00000           aqu         5           rhg       1.00000  
      37  rtu0202                202      11.41000      41.36943     -82.50645     182.21472        37     s41378n82508w         0         0         0         4           sdc        13           sur       0.59000            ru        36           sur       0.41000            ru        36           lat       1.00000           aqu         6           rhg       1.00000  
      38  rtu0211                211       2.54000      41.36672     -82.50711     175.84646        38     s41378n82508w         0         0         0         2           sdc        14           tot       1.00000           aqu         3           rhg       1.00000  
      39  rtu0212                212       1.33000      41.36636     -82.50883     179.18045        39     s41378n82508w         0         0         0         4           sdc        14           sur       0.34000            ru        38           sur       0.66000            ru        38           lat       1.00000           aqu         4           rhg       1.00000  
      40  rtu0221                221       2.80000      41.36555     -82.50640     174.98214        40     s41378n82508w         0         0         0         2           sdc        15           tot       1.00000           aqu         3           rhg       1.00000  
      41  rtu0222                222       2.48000      41.36527     -82.50877     181.96371        41     s41378n82508w         0         0         0         4           sdc        15           sur       0.47000            ru        40           sur       0.53000            ru        40           lat       1.00000           aqu         4           rhg       1.00000  
      42  rtu0231                231       2.14000      41.36453     -82.50498     175.67757        42     s41378n82508w         0         0         0         2           sdc        16           tot       1.00000           aqu        11           rhg       1.00000  
      43  rtu0232                232       5.97000      41.36423     -82.50651     182.72697        43     s41378n82508w         0         0         0         4           sdc        16           sur       0.74000            ru        42           sur       0.26000            ru        42           lat       1.00000           aqu        12           rhg       1.00000  
      44  rtu0241                241      15.20000      41.36078     -82.50586     178.07763        44     s41378n82508w         0         0         0         2           sdc        17           tot       1.00000           aqu        13           rhg       1.00000  
      45  rtu0242                242      18.40000      41.36069     -82.50728     184.05000        45     s41378n82508w         0         0         0         4           sdc        17           sur       0.55000            ru        44           sur       0.45000            ru        44           lat       1.00000           aqu        14           rhg       1.00000  
      46  rtu0251                251      26.12000      41.35454     -82.51029     179.69334        46     s41378n82508w         0         0         0         2           sdc        18           tot       1.00000           aqu        13           rhg       1.00000  
      47  rtu0252                252      27.59000      41.35368     -82.51074     187.56071        47     s41378n82508w         0         0         0         4           sdc        18           sur       0.51000            ru        46           sur       0.49000            ru        46           lat       1.00000           aqu        14           rhg       1.00000  
      48  rtu0261                261       4.68000      41.36270     -82.50292     175.91667        48     s41378n82508w         0         0         0         2           sdc        19           tot       1.00000           aqu         9           rhg       1.00000  
      49  rtu0262                262      12.32000      41.36264     -82.50145     182.97808        49     s41378n82508w         0         0         0         4           sdc        19           sur       0.72000            ru        48           sur       0.28000            ru        48           lat       1.00000           aqu        10           rhg       1.00000  
      50  rtu0271                271       1.66000      41.36117     -82.49901     177.70482        50     s41378n82508w         0         0         0         2           sdc        20           tot       1.00000           aqu         9           rhg       1.00000  
      51  rtu0272                272       4.08000      41.36089     -82.49973     184.84069        51     s41378n82508w         0         0         0         4           sdc        20           sur       0.71000            ru        50           sur       0.29000            ru        50           lat       1.00000           aqu        10           rhg       1.00000  
      52  rtu0281                281       7.79000      41.35537     -82.50192     180.16175        52     s41378n82508w         0         0         0         2           sdc        21           tot       1.00000           aqu         9           rhg       1.00000  
      53  rtu0282                282      49.06000      41.35428     -82.50225     187.46637        53     s41378n82508w         0         0         0         4           sdc        21           sur       0.86000            ru        52           sur       0.14000            ru        52           lat       1.00000           aqu        10           rhg       1.00000  
      54  rtu0291                291       3.00000      41.36568     -82.51245     178.86667        54     s41378n82508w         0         0         0         2           sdc        22           tot       1.00000           aqu         7           rhg       1.00000  
      55  rtu0292                292      39.60000      41.36370     -82.51337     185.04217        55     s41378n82508w         0         0         0         4           sdc        22           sur       0.93000            ru        54           sur       0.07000            ru        54           lat       1.00000           aqu         8           rhg       1.00000  
      56  rtu0301                301       0.85000      41.35764     -82.51700     185.18824        56     s41378n82508w         0         0         0         2           sdc        23           tot       1.00000           aqu         7           rhg       1.00000  
      57  rtu0302                302      46.18000      41.35534     -82.51704     188.18060        57     s41378n82508w         0         0         0         4           sdc        23           sur       0.98000            ru        56           sur       0.02000            ru        56           lat       1.00000           aqu         8           rhg       1.00000  
      58  rtu0311                311       1.78000      41.36902     -82.51448     181.01124        58     s41378n82508w         0         0         0         2           sdc        24           tot       1.00000           aqu         1           rhg       1.00000  
      59  rtu0312                312       1.57000      41.36854     -82.51519     184.26752        59     s41378n82508w         0         0         0         4           sdc        24           sur       0.47000            ru        58           sur       0.53000            ru        58           lat       1.00000           aqu         2           rhg       1.00000  
      60  rtu0321                321       2.40000      41.36590     -82.50478     175.18333        60     s41378n82508w         0         0         0         2           sdc        25           tot       1.00000           aqu         3           rhg       1.00000  
      61  rtu0322                322       2.26000      41.36619     -82.50390     178.23009        61     s41378n82508w         0         0         0         4           sdc        25           sur       0.48000            ru        60           sur       0.52000            ru        60           lat       1.00000           aqu         4           rhg       1.00000  
      62  rtu0331                331       1.14000      41.36713     -82.52134     184.96491        62     s41378n82508w         0         0         0         2           sdc        26           tot       1.00000           aqu         1           rhg       1.00000  
      63  rtu0332                332      39.02000      41.36566     -82.52288     186.41543        63     s41378n82508w         0         0         0         4           sdc        26           sur       0.97000            ru        62           sur       0.03000            ru        62           lat       1.00000           aqu         2           rhg       1.00000  
      64  rtu0341                341       0.47000      41.35980     -82.51823     185.25532        64     s41378n82508w         0         0         0         2           sdc        27           tot       1.00000           aqu         7           rhg       1.00000  
      65  rtu0342                342      24.11000      41.35831     -82.52015     187.58606        65     s41378n82508w         0         0         0         4           sdc        27           sur       0.98000            ru        64           sur       0.02000            ru        64           lat       1.00000           aqu         8           rhg       1.00000  
      66  rtu0351                351       0.34000      41.35873     -82.49880     184.85294        66     s41378n82508w         0         0         0         2           sdc        28           tot       1.00000           aqu         9           rhg       1.00000  
      67  rtu0352                352      26.78000      41.35592     -82.49698     188.19940        67     s41378n82508w         0         0         0         4           sdc        28           sur       0.99000            ru        66           sur       0.01000            ru        66           lat       1.00000           aqu        10           rhg       1.00000  
      68  rtu0361                361       0.94000      41.35827     -82.50864     176.74468        68     s41378n82508w         0         0         0         2           sdc        29           tot       1.00000           aqu        13           rhg       1.00000  
      69  rtu0362                362      10.69000      41.35880     -82.51096     186.47428        69     s41378n82508w         0         0         0         4           sdc        29           sur       0.92000            ru        68           sur       0.08000            ru        68           lat       1.00000           aqu        14           rhg       1.00000  
      70  rtu0371                371       0.70000      41.36079     -82.49695     181.62857        70     s41378n82508w         0         0         0         2           sdc        30           tot       1.00000           aqu         9           rhg       1.00000  
      71  rtu0372                372      37.97000      41.36008     -82.49530     187.21938        71     s41378n82508w         0         0         0         4           sdc        30           sur       0.98000            ru        70           sur       0.02000            ru        70           lat       1.00000           aqu        10           rhg       1.00000  
      72  rtu0381                381       0.11000      41.36342     -82.52355     186.00000        72     s41378n82508w         0         0         0         2           sdc        31           tot       1.00000           aqu         1           rhg       1.00000  
      73  rtu0382                382      13.33000      41.36118     -82.52359     187.04201        73     s41378n82508w         0         0         0         4           sdc        31           sur       0.99000            ru        72           sur       0.01000            ru        72           lat       1.00000           aqu         2           rhg       1.00000  
      74  rtu0391                391       0.05000      41.36364     -82.52305     186.00000        74     s41378n82508w         0         0         0         2           sdc        32           tot       1.00000           aqu         1           rhg       1.00000  
      75  rtu0392                392      10.27000      41.36245     -82.52051     187.21519        75     s41378n82508w         0         0         0         3           sdc        32           sur       1.00000            ru        74           lat       1.00000           aqu         2           rhg       1.00000  
      76  rtu0401                401       0.11000      41.36762     -82.51549     181.36364        76     s41378n82508w         0         0         0         2           sdc        33           tot       1.00000           aqu         1           rhg       1.00000  
      77  rtu0402                402      13.76000      41.36555     -82.51752     186.38881        77     s41378n82508w         0         0         0         4           sdc        33           sur       0.99000            ru        76           sur       0.01000            ru        76           lat       1.00000           aqu         2           rhg       1.00000  
      78  rtu0411                411       0.18000      41.36723     -82.50439     177.83333        78     s41378n82508w         0         0         0         2           sdc        34           tot       1.00000           aqu         3           rhg       1.00000  
      79  rtu0412                412      10.95000      41.36910     -82.50210     183.77169        79     s41378n82508w         0         0         0         4           sdc        34           sur       0.98000            ru        78           sur       0.02000            ru        78           lat       1.00000           aqu         4           rhg       1.00000  
      80  rtu0421                421       0.96000      41.37089     -82.51500     177.22917        80     s41378n82508w         0         0         0         2           sdc        35           tot       1.00000           aqu         1           rhg       1.00000  
      81  rtu0422                422       9.58000      41.36928     -82.51763     184.46347        81     s41378n82508w         0         0         0         4           sdc        35           sur       0.91000            ru        80           sur       0.09000            ru        80           lat       1.00000           aqu         2           rhg       1.00000  
      82  rtu0431                431       0.86000      41.36712     -82.50025     178.76744        82     s41378n82508w         0         0         0         2           sdc        36           tot       1.00000           aqu         3           rhg       1.00000  
      83  rtu0432                432      52.22000      41.36807     -82.49708     184.96457        83     s41378n82508w         0         0         0         4           sdc        36           sur       0.98000            ru        82           sur       0.02000            ru        82           lat       1.00000           aqu         4           rhg       1.00000  
      84  rtu0441                441       2.80000      41.37085     -82.51242     174.93571        84     s41378n82508w         0         0         0         2           sdc        37           tot       1.00000           aqu         1           rhg       1.00000  
      85  rtu0442                442       7.74000      41.37037     -82.51007     176.48708        85     s41378n82508w         0         0         0         4           sdc        37           sur       0.73000            ru        84           sur       0.27000            ru        84           lat       1.00000           aqu         2           rhg       1.00000  
      86  rtu0451                451       4.18000      41.34924     -82.51227     181.45694        86     s41378n82508w         0         0         0         2           sdc        38           tot       1.00000           aqu        13           rhg       1.00000  
      87  rtu0452                452      11.59000      41.34943     -82.51554     187.62036        87     s41378n82508w         0         0         0         4           sdc        38           sur       0.73000            ru        86           sur       0.27000            ru        86           lat       1.00000           aqu        14           rhg       1.00000  
      88  rtu0461                461       3.24000      41.34782     -82.51180     185.55864        88     s41378n82508w         0         0         0         2           sdc        39           tot       1.00000           aqu        19           rhg       1.00000  
      89  rtu0462                462       3.15000      41.34703     -82.51002     189.48571        89     s41378n82508w         0         0         0         4           sdc        39           sur       0.49000            ru        88           sur       0.51000            ru        88           lat       1.00000           aqu        20           rhg       1.00000  
      90  rtu0471                471       6.28000      41.34626     -82.51544     179.73567        90     s41378n82508w         0         0         0         2           sdc        40           tot       1.00000           aqu        21           rhg       1.00000  
      91  rtu0472                472      13.34000      41.34649     -82.51795     187.84633        91     s41378n82508w         0         0         0         4           sdc        40           sur       0.68000            ru        90           sur       0.32000            ru        90           lat       1.00000           aqu        22           rhg       1.00000  
      92  rtu0481                481       1.44000      41.34403     -82.51905     180.64583        92     s41378n82508w         0         0         0         2           sdc        41           tot       1.00000           aqu        21           rhg       1.00000  
      93  rtu0482                482       2.48000      41.34474     -82.52036     188.61694        93     s41378n82508w         0         0         0         4           sdc        41           sur       0.63000            ru        92           sur       0.37000            ru        92           lat       1.00000           aqu        22           rhg       1.00000  