rout_unit.ele: written by SWAT+ editor v2.0.4 on 2022-01-21 12:22
      id  name                   obj_typ    obj_id          frac               dlr  
       1  hru0001                    hru         1     1.0000E+0                 0  
       2  hru0002                    hru         2     4.0167E-1                 0  
       3  hru0003                    hru         3     2.0921E-2                 0  
       4  hru0004                    hru         4     1.3808E-1                 0  
       5  hru0005                    hru         5     1.2552E-1                 0  
       6  hru0006                    hru         6     1.4644E-1                 0  
       7  hru0007                    hru         7     1.6736E-1                 0  
       8  hru0008                    hru         8     1.1741E-1                 0  
       9  hru0009                    hru         9     9.8516E-2                 0  
      10  hru0010                    hru        10     1.8758E-1                 0  
      11  hru0011                    hru        11     1.0526E-1                 0  
      12  hru0012                    hru        12     2.3482E-1                 0  
      13  hru0013                    hru        13     1.0796E-2                 0  
      14  hru0014                    hru        14     2.0243E-2                 0  
      15  hru0015                    hru        15     2.4291E-2                 0  
      16  hru0016                    hru        16     2.0108E-1                 0  
      17  hru0017                    hru        17     3.0233E-1                 0  
      18  hru0018                    hru        18     3.0233E-1                 0  
      19  hru0019                    hru        19     2.7907E-1                 0  
      20  hru0020                    hru        20     6.9767E-2                 0  
      21  hru0021                    hru        21     4.6512E-2                 0  
      22  hru0022                    hru        22     9.9620E-3                 0  
      23  hru0023                    hru        23     4.7438E-3                 0  
      24  hru0024                    hru        24     2.3719E-3                 0  
      25  hru0025                    hru        25     6.6414E-3                 0  
      26  hru0026                    hru        26     1.8027E-2                 0  
      27  hru0027                    hru        27     9.4877E-4                 0  
      28  hru0028                    hru        28     1.4184E-1                 0  
      29  hru0029                    hru        29     3.5009E-1                 0  
      30  hru0030                    hru        30     7.0209E-2                 0  
      31  hru0031                    hru        31     2.8463E-3                 0  
      32  hru0032                    hru        32     1.0104E-1                 0  
      33  hru0033                    hru        33     1.0674E-1                 0  
      34  hru0034                    hru        34     1.5655E-1                 0  
      35  hru0035                    hru        35     1.8975E-2                 0  
      36  hru0036                    hru        36     9.0133E-3                 0  
      37  hru0037                    hru        37     3.6757E-1                 0  
      38  hru0038                    hru        38     3.2432E-2                 0  
      39  hru0039                    hru        39     3.2432E-2                 0  
      40  hru0040                    hru        40     1.3514E-2                 0  
      41  hru0041                    hru        41     1.3514E-1                 0  
      42  hru0042                    hru        42     2.6216E-1                 0  
      43  hru0043                    hru        43     1.5676E-1                 0  
      44  hru0044                    hru        44     7.2000E-2                 0  
      45  hru0045                    hru        45     6.0400E-1                 0  
      46  hru0046                    hru        46     1.3200E-1                 0  
      47  hru0047                    hru        47     1.9200E-1                 0  
      48  hru0048                    hru        48     3.4767E-2                 0  
      49  hru0049                    hru        49     4.0417E-2                 0  
      50  hru0050                    hru        50     1.5428E-1                 0  
      51  hru0051                    hru        51     4.0417E-2                 0  
      52  hru0052                    hru        52     4.3459E-3                 0  
      53  hru0053                    hru        53     7.8227E-3                 0  
      54  hru0054                    hru        54     5.6497E-3                 0  
      55  hru0055                    hru        55     8.6919E-4                 0  
      56  hru0056                    hru        56     4.7805E-3                 0  
      57  hru0057                    hru        57     7.0839E-2                 0  
      58  hru0058                    hru        58     1.1343E-1                 0  
      59  hru0059                    hru        59     4.0417E-2                 0  
      60  hru0060                    hru        60     6.1712E-2                 0  
      61  hru0061                    hru        61     5.6497E-2                 0  
      62  hru0062                    hru        62     3.4767E-3                 0  
      63  hru0063                    hru        63     4.3459E-4                 0  
      64  hru0064                    hru        64     1.8905E-1                 0  
      65  hru0065                    hru        65     6.2147E-2                 0  
      66  hru0066                    hru        66     8.1269E-2                 0  
      67  hru0067                    hru        67     3.4767E-3                 0  
      68  hru0068                    hru        68     1.9991E-2                 0  
      69  hru0069                    hru        69     3.9113E-3                 0  
      70  hru0070                    hru        70     2.5000E-2                 0  
      71  hru0071                    hru        71     5.0000E-2                 0  
      72  hru0072                    hru        72     1.7500E-1                 0  
      73  hru0073                    hru        73     5.0000E-2                 0  
      74  hru0074                    hru        74     4.5000E-1                 0  
      75  hru0075                    hru        75     1.5000E-1                 0  
      76  hru0076                    hru        76     1.0000E-1                 0  
      77  hru0077                    hru        77     1.8797E-2                 0  
      78  hru0078                    hru        78     1.8797E-2                 0  
      79  hru0079                    hru        79     8.7719E-3                 0  
      80  hru0080                    hru        80     5.3008E-1                 0  
      81  hru0081                    hru        81     1.8797E-1                 0  
      82  hru0082                    hru        82     2.0927E-1                 0  
      83  hru0083                    hru        83     7.5188E-3                 0  
      84  hru0084                    hru        84     1.8797E-2                 0  
      85  hru0085                    hru        85     8.6486E-2                 0  
      86  hru0086                    hru        86     5.0811E-1                 0  
      87  hru0087                    hru        87     2.7568E-1                 0  
      88  hru0088                    hru        88     1.2973E-1                 0  
      89  hru0089                    hru        89     1.5136E-1                 0  
      90  hru0090                    hru        90     3.7469E-1                 0  
      91  hru0091                    hru        91     3.7717E-1                 0  
      92  hru0092                    hru        92     9.6774E-2                 0  
      93  hru0093                    hru        93     9.2000E-1                 0  
      94  hru0094                    hru        94     8.0000E-2                 0  
      95  hru0095                    hru        95     4.6157E-2                 0  
      96  hru0096                    hru        96     1.9949E-2                 0  
      97  hru0097                    hru        97     5.5545E-2                 0  
      98  hru0098                    hru        98     1.8189E-2                 0  
      99  hru0099                    hru        99     1.5842E-2                 0  
     100  hru0100                    hru       100     9.7790E-4                 0  
     101  hru0101                    hru       101     1.9558E-4                 0  
     102  hru0102                    hru       102     1.1735E-3                 0  
     103  hru0103                    hru       103     1.0170E-2                 0  
     104  hru0104                    hru       104     6.3759E-2                 0  
     105  hru0105                    hru       105     2.5582E-1                 0  
     106  hru0106                    hru       106     4.7526E-2                 0  
     107  hru0107                    hru       107     3.2466E-2                 0  
     108  hru0108                    hru       108     9.7790E-4                 0  
     109  hru0109                    hru       109     3.5400E-2                 0  
     110  hru0110                    hru       110     3.1880E-2                 0  
     111  hru0111                    hru       111     2.5817E-2                 0  
     112  hru0112                    hru       112     1.7211E-2                 0  
     113  hru0113                    hru       113     9.5834E-3                 0  
     114  hru0114                    hru       114     6.9040E-2                 0  
     115  hru0115                    hru       115     1.4277E-2                 0  
     116  hru0116                    hru       116     7.2560E-2                 0  
     117  hru0117                    hru       117     1.5646E-3                 0  
     118  hru0118                    hru       118     2.2101E-2                 0  
     119  hru0119                    hru       119     5.8674E-4                 0  
     120  hru0120                    hru       120     7.4320E-3                 0  
     121  hru0121                    hru       121     3.5204E-2                 0  
     122  hru0122                    hru       122     6.4541E-3                 0  
     123  hru0123                    hru       123     3.9116E-4                 0  
     124  hru0124                    hru       124     9.7790E-4                 0  
     125  hru0125                    hru       125     1.4864E-2                 0  
     126  hru0126                    hru       126     3.5204E-3                 0  
     127  hru0127                    hru       127     2.0731E-2                 0  
     128  hru0128                    hru       128     9.5834E-3                 0  
     129  hru0129                    hru       129     1.3691E-3                 0  
     130  hru0130                    hru       130     1.7602E-3                 0  
     131  hru0131                    hru       131     2.8946E-2                 0  
     132  hru0132                    hru       132     1.7857E-2                 0  
     133  hru0133                    hru       133     3.3929E-1                 0  
     134  hru0134                    hru       134     8.0357E-2                 0  
     135  hru0135                    hru       135     8.0357E-2                 0  
     136  hru0136                    hru       136     1.8750E-1                 0  
     137  hru0137                    hru       137     6.2500E-2                 0  
     138  hru0138                    hru       138     4.4643E-2                 0  
     139  hru0139                    hru       139     7.1429E-2                 0  
     140  hru0140                    hru       140     4.4643E-2                 0  
     141  hru0141                    hru       141     3.5714E-2                 0  
     142  hru0142                    hru       142     3.5714E-2                 0  
     143  hru0143                    hru       143     1.2088E-1                 0  
     144  hru0144                    hru       144     4.3956E-2                 0  
     145  hru0145                    hru       145     7.9121E-1                 0  
     146  hru0146                    hru       146     4.3956E-2                 0  
     147  hru0147                    hru       147     4.3939E-1                 0  
     148  hru0148                    hru       148     3.1818E-1                 0  
     149  hru0149                    hru       149     2.4242E-1                 0  
     150  hru0150                    hru       150     1.8727E-2                 0  
     151  hru0151                    hru       151     3.1461E-1                 0  
     152  hru0152                    hru       152     9.7378E-2                 0  
     153  hru0153                    hru       153     4.4944E-1                 0  
     154  hru0154                    hru       154     3.7453E-2                 0  
     155  hru0155                    hru       155     3.7453E-3                 0  
     156  hru0156                    hru       156     7.8652E-2                 0  
     157  hru0157                    hru       157     2.7027E-1                 0  
     158  hru0158                    hru       158     5.0676E-1                 0  
     159  hru0159                    hru       159     1.2162E-1                 0  
     160  hru0160                    hru       160     1.0135E-1                 0  
     161  hru0161                    hru       161     4.3889E-1                 0  
     162  hru0162                    hru       162     1.8519E-2                 0  
     163  hru0163                    hru       163     1.6667E-1                 0  
     164  hru0164                    hru       164     2.0370E-2                 0  
     165  hru0165                    hru       165     6.2963E-2                 0  
     166  hru0166                    hru       166     1.6667E-2                 0  
     167  hru0167                    hru       167     7.2222E-2                 0  
     168  hru0168                    hru       168     2.7778E-2                 0  
     169  hru0169                    hru       169     3.7037E-3                 0  
     170  hru0170                    hru       170     5.5556E-3                 0  
     171  hru0171                    hru       171     2.9630E-2                 0  
     172  hru0172                    hru       172     1.3704E-1                 0  
     173  hru0173                    hru       173     6.0000E-1                 0  
     174  hru0174                    hru       174     2.6667E-1                 0  
     175  hru0175                    hru       175     1.3333E-1                 0  
     176  hru0176                    hru       176     9.3023E-2                 0  
     177  hru0177                    hru       177     6.6279E-1                 0  
     178  hru0178                    hru       178     2.4419E-1                 0  
     179  hru0179                    hru       179     4.1739E-1                 0  
     180  hru0180                    hru       180     1.3043E-2                 0  
     181  hru0181                    hru       181     8.9855E-2                 0  
     182  hru0182                    hru       182     3.7826E-1                 0  
     183  hru0183                    hru       183     1.0145E-1                 0  
     184  hru0184                    hru       184     5.1355E-1                 0  
     185  hru0185                    hru       185     5.2980E-2                 0  
     186  hru0186                    hru       186     1.2763E-1                 0  
     187  hru0187                    hru       187     2.8296E-1                 0  
     188  hru0188                    hru       188     2.1674E-2                 0  
     189  hru0189                    hru       189     1.2041E-3                 0  
     190  hru0190                    hru       190     5.5882E-1                 0  
     191  hru0191                    hru       191     2.9412E-2                 0  
     192  hru0192                    hru       192     4.1176E-1                 0  
     193  hru0193                    hru       193     4.4709E-3                 0  
     194  hru0194                    hru       194     3.8674E-1                 0  
     195  hru0195                    hru       195     4.5455E-2                 0  
     196  hru0196                    hru       196     1.4307E-1                 0  
     197  hru0197                    hru       197     2.6080E-2                 0  
     198  hru0198                    hru       198     3.3532E-2                 0  
     199  hru0199                    hru       199     5.2906E-2                 0  
     200  hru0200                    hru       200     5.9613E-2                 0  
     201  hru0201                    hru       201     7.4516E-4                 0  
     202  hru0202                    hru       202     8.9419E-3                 0  
     203  hru0203                    hru       203     1.0432E-2                 0  
     204  hru0204                    hru       204     7.4516E-4                 0  
     205  hru0205                    hru       205     1.5872E-1                 0  
     206  hru0206                    hru       206     3.5768E-2                 0  
     207  hru0207                    hru       207     3.2787E-2                 0  
     208  hru0208                    hru       208     6.0000E-1                 0  
     209  hru0209                    hru       209     2.0000E-1                 0  
     210  hru0210                    hru       210     2.0000E-1                 0  
     211  hru0211                    hru       211     2.3952E-3                 0  
     212  hru0212                    hru       212     1.1976E-3                 0  
     213  hru0213                    hru       213     5.9880E-4                 0  
     214  hru0214                    hru       214     8.3832E-3                 0  
     215  hru0215                    hru       215     1.2156E-1                 0  
     216  hru0216                    hru       216     3.5928E-3                 0  
     217  hru0217                    hru       217     1.2575E-2                 0  
     218  hru0218                    hru       218     7.9641E-2                 0  
     219  hru0219                    hru       219     1.3713E-1                 0  
     220  hru0220                    hru       220     1.0299E-1                 0  
     221  hru0221                    hru       221     9.5808E-3                 0  
     222  hru0222                    hru       222     5.9880E-4                 0  
     223  hru0223                    hru       223     3.7425E-1                 0  
     224  hru0224                    hru       224     3.7126E-2                 0  
     225  hru0225                    hru       225     6.0479E-2                 0  
     226  hru0226                    hru       226     2.1557E-2                 0  
     227  hru0227                    hru       227     9.5808E-3                 0  
     228  hru0228                    hru       228     1.6766E-2                 0  
     229  hru0229                    hru       229     1.0714E-1                 0  
     230  hru0230                    hru       230     8.9286E-1                 0  
     231  hru0231                    hru       231     4.0625E-1                 0  
     232  hru0232                    hru       232     3.7500E-1                 0  
     233  hru0233                    hru       233     2.1875E-1                 0  
     234  hru0234                    hru       234     5.5056E-1                 0  
     235  hru0235                    hru       235     5.6180E-2                 0  
     236  hru0236                    hru       236     2.0225E-1                 0  
     237  hru0237                    hru       237     1.9101E-1                 0  
     238  hru0238                    hru       238     6.5611E-1                 0  
     239  hru0239                    hru       239     1.8100E-2                 0  
     240  hru0240                    hru       240     3.2579E-1                 0  
     241  hru0241                    hru       241     4.3519E-1                 0  
     242  hru0242                    hru       242     5.5556E-2                 0  
     243  hru0243                    hru       243     2.0833E-1                 0  
     244  hru0244                    hru       244     2.5000E-1                 0  
     245  hru0245                    hru       245     5.0926E-2                 0  
     246  hru0246                    hru       246     8.6429E-1                 0  
     247  hru0247                    hru       247     9.6429E-2                 0  
     248  hru0248                    hru       248     1.0714E-2                 0  
     249  hru0249                    hru       249     2.8571E-2                 0  
     250  hru0250                    hru       250     5.1938E-1                 0  
     251  hru0251                    hru       251     4.0698E-1                 0  
     252  hru0252                    hru       252     3.8760E-2                 0  
     253  hru0253                    hru       253     1.2920E-2                 0  
     254  hru0254                    hru       254     2.1964E-2                 0  
     255  hru0255                    hru       255     2.9167E-1                 0  
     256  hru0256                    hru       256     6.1458E-1                 0  
     257  hru0257                    hru       257     3.1250E-2                 0  
     258  hru0258                    hru       258     6.2500E-2                 0  
     259  hru0259                    hru       259     1.0856E-1                 0  
     260  hru0260                    hru       260     2.7557E-1                 0  
     261  hru0261                    hru       261     1.5658E-2                 0  
     262  hru0262                    hru       262     2.0981E-1                 0  
     263  hru0263                    hru       263     3.1315E-2                 0  
     264  hru0264                    hru       264     7.9332E-2                 0  
     265  hru0265                    hru       265     1.7745E-2                 0  
     266  hru0266                    hru       266     4.1754E-2                 0  
     267  hru0267                    hru       267     1.1378E-1                 0  
     268  hru0268                    hru       268     2.0877E-3                 0  
     269  hru0269                    hru       269     4.1754E-3                 0  
     270  hru0270                    hru       270     3.9666E-2                 0  
     271  hru0271                    hru       271     3.6534E-2                 0  
     272  hru0272                    hru       272     4.1754E-3                 0  
     273  hru0273                    hru       273     1.5658E-2                 0  
     274  hru0274                    hru       274     4.1754E-3                 0  
     275  hru0275                    hru       275     6.2500E-1                 0  
     276  hru0276                    hru       276     1.4167E-1                 0  
     277  hru0277                    hru       277     1.5833E-1                 0  
     278  hru0278                    hru       278     7.5000E-2                 0  
     279  hru0279                    hru       279     5.5839E-1                 0  
     280  hru0280                    hru       280     1.4650E-1                 0  
     281  hru0281                    hru       281     1.7197E-1                 0  
     282  hru0282                    hru       282     5.7325E-2                 0  
     283  hru0283                    hru       283     3.3970E-2                 0  
     284  hru0284                    hru       284     6.3694E-3                 0  
     285  hru0285                    hru       285     2.5478E-2                 0  
     286  hru0286                    hru       286     3.0899E-1                 0  
     287  hru0287                    hru       287     5.3371E-1                 0  
     288  hru0288                    hru       288     2.2472E-2                 0  
     289  hru0289                    hru       289     1.3483E-1                 0  
     290  hru0290                    hru       290     5.3503E-1                 0  
     291  hru0291                    hru       291     4.6497E-1                 0  
     292  hru0292                    hru       292     1.4864E-2                 0  
     293  hru0293                    hru       293     2.4859E-2                 0  
     294  hru0294                    hru       294     1.8555E-1                 0  
     295  hru0295                    hru       295     2.4039E-1                 0  
     296  hru0296                    hru       296     1.0943E-1                 0  
     297  hru0297                    hru       297     9.9949E-3                 0  
     298  hru0298                    hru       298     1.0251E-3                 0  
     299  hru0299                    hru       299     7.6884E-4                 0  
     300  hru0300                    hru       300     6.4070E-3                 0  
     301  hru0301                    hru       301     1.1533E-2                 0  
     302  hru0302                    hru       302     1.1276E-2                 0  
     303  hru0303                    hru       303     6.9195E-3                 0  
     304  hru0304                    hru       304     7.6884E-4                 0  
     305  hru0305                    hru       305     1.9016E-1                 0  
     306  hru0306                    hru       306     2.5628E-3                 0  
     307  hru0307                    hru       307     3.0753E-3                 0  
     308  hru0308                    hru       308     2.1271E-2                 0  
     309  hru0309                    hru       309     5.3819E-3                 0  
     310  hru0310                    hru       310     8.4572E-3                 0  
     311  hru0311                    hru       311     3.8442E-3                 0  
     312  hru0312                    hru       312     1.6914E-2                 0  
     313  hru0313                    hru       313     1.7427E-2                 0  
     314  hru0314                    hru       314     7.6884E-4                 0  
     315  hru0315                    hru       315     3.8442E-3                 0  
     316  hru0316                    hru       316     4.6130E-3                 0  
     317  hru0317                    hru       317     1.7940E-2                 0  
     318  hru0318                    hru       318     4.1005E-3                 0  
     319  hru0319                    hru       319     9.9949E-3                 0  
     320  hru0320                    hru       320     6.4070E-3                 0  
     321  hru0321                    hru       321     1.6658E-2                 0  
     322  hru0322                    hru       322     5.1256E-4                 0  
     323  hru0323                    hru       323     1.6146E-2                 0  
     324  hru0324                    hru       324     1.5377E-3                 0  
     325  hru0325                    hru       325     2.2553E-2                 0  
     326  hru0326                    hru       326     2.0502E-3                 0  
     327  hru0327                    hru       327     2.6316E-2                 0  
     328  hru0328                    hru       328     5.2632E-2                 0  
     329  hru0329                    hru       329     1.7544E-2                 0  
     330  hru0330                    hru       330     8.7719E-3                 0  
     331  hru0331                    hru       331     8.7719E-3                 0  
     332  hru0332                    hru       332     4.6491E-1                 0  
     333  hru0333                    hru       333     5.2632E-2                 0  
     334  hru0334                    hru       334     2.6316E-2                 0  
     335  hru0335                    hru       335     8.7719E-3                 0  
     336  hru0336                    hru       336     9.6491E-2                 0  
     337  hru0337                    hru       337     2.1930E-1                 0  
     338  hru0338                    hru       338     1.7544E-2                 0  
     339  hru0339                    hru       339     2.7273E-1                 0  
     340  hru0340                    hru       340     4.5455E-1                 0  
     341  hru0341                    hru       341     2.7273E-1                 0  
     342  hru0342                    hru       342     1.1628E-2                 0  
     343  hru0343                    hru       343     2.1802E-3                 0  
     344  hru0344                    hru       344     1.5262E-2                 0  
     345  hru0345                    hru       345     5.8140E-3                 0  
     346  hru0346                    hru       346     2.9070E-3                 0  
     347  hru0347                    hru       347     9.4477E-3                 0  