snow.sno: written by SWAT+ editor v2.0.4 on 2022-01-21 12:23
name                  fall_tmp      melt_tmp      melt_max      melt_min       tmp_lag      snow_h2o         cov50     snow_init  
snow001                0.00000       4.50000       3.00000       2.00000       0.50000       1.00000       0.50000       0.00000  
