soil_plant.ini: written by SWAT+ editor v2.0.4 on 2022-01-21 12:23
name                   sw_frac         nutrients              pest              path              hmet              salt  
soilplant1             0.00000          soilnut1              null              null              null              null  
soilnut_0-10           0.00000      soilnut_0-10              null              null              null              null  
soilnut_10-20          0.00000     soilnut_10-20              null              null              null              null  
soilnut_20-30          0.00000     soilnut_20-30              null              null              null              null  
soilnut_30-40          0.00000     soilnut_30-40              null              null              null              null  
soilnut_40-50          0.00000     soilnut_40-50              null              null              null              null  
soilnut_50-60          0.00000     soilnut_50-60              null              null              null              null  
soilnut_60-70          0.00000     soilnut_60-70              null              null              null              null  
soilnut_70-80          0.00000     soilnut_70-80              null              null              null              null
soilnut_80-90          0.00000     soilnut_80-90              null              null              null              null
soilnut_90-100         0.00000    soilnut_90-100              null              null              null              null  
soilnut_100-110        0.00000   soilnut_100-110              null              null              null              null 
soilnut_110-120        0.00000   soilnut_100-110              null              null              null              null 
soilnut_120-130        0.00000   soilnut_120-130              null              null              null              null 
soilnut_130-140        0.00000   soilnut_130-140              null              null              null              null 
soilnut_140-150        0.00000   soilnut_140-150              null              null              null              null 
soilnut_150-160        0.00000   soilnut_150-160              null              null              null              null 
soilnut_160-170        0.00000   soilnut_160-170              null              null              null              null 
soilnut_170-180        0.00000   soilnut_170-180              null              null              null              null 
soilnut_180-190        0.00000   soilnut_180-190              null              null              null              null
soilnut_190-200        0.00000   soilnut_190-200              null              null              null              null
soilnut_200-210        0.00000   soilnut_190-200              null              null              null              null
soilnut_210-220        0.00000   soilnut_210-220              null              null              null              null
