soils.sol: written by SWAT+ editor v2.0.4 on 2022-01-21 12:23
name                            nly           hyd_grp        dp_tot    anion_excl      perc_crk  texture                              dp            bd           awc        soil_k        carbon          clay          silt          sand          rock           alb        usle_k            ec         caco3            ph  
167956                            4                 C    2000.00000       0.90000       0.10000  SIL-_SICL-_SICL-_CL        
                                                                                                                               250.00000       1.40000       0.21000      33.01200       2.75000      20.00000      60.00000      20.00000       3.00000       0.29000       0.43000       0.00000       0.00000       6.20000  
                                                                                                                               740.00000       1.55000       0.15000       3.31200       1.00000      38.00000      47.00000      15.00000      10.00000       0.29000       0.37000       0.00000       0.00000       5.90000  
                                                                                                                              1070.00000       1.55000       0.12000       3.31200       0.75000      35.00000      47.00000      18.00000       1.00000       0.29000       0.37000       0.00000       0.00000       7.00000  
                                                                                                                              2000.00000       1.70000       0.09000       3.31200       0.25000      28.00000      50.00000      22.00000       2.00000       0.29000       0.43000       0.00000      15.00000       7.90000  
167957                            4                 C    2000.00000       0.90000       0.10000  SIL-_SICL-_SICL-_CL        
                                                                                                                               230.00000       1.40000       0.21000      33.01200       2.50000      22.00000      58.00000      20.00000       3.00000       0.29000       0.43000       0.00000       0.00000       6.20000  
                                                                                                                               740.00000       1.55000       0.15000       3.31200       1.00000      38.00000      47.00000      15.00000      10.00000       0.29000       0.37000       0.00000       0.00000       5.90000  
                                                                                                                              1020.00000       1.55000       0.12000       3.31200       0.75000      35.00000      47.00000      18.00000       1.00000       0.29000       0.37000       0.00000       0.00000       7.00000  
                                                                                                                              2000.00000       1.70000       0.09000       3.31200       0.25000      28.00000      50.00000      22.00000       2.00000       0.29000       0.43000       0.00000      15.00000       7.90000  
167958                            4                 A    1520.00000       0.90000       0.10000  LFS-_LFS-_FSL-_SR-_FS_SICL  
                                                                                                                               230.00000       1.33000       0.12000     330.26400       1.75000      10.00000       9.20000      80.80000       3.00000       0.30000       0.17000       0.00000       0.00000       6.50000  
                                                                                                                               790.00000       1.33000       0.09000     330.26400       0.65000      10.00000       9.20000      80.80000       3.00000       0.30000       0.24000       0.00000       0.00000       6.50000  
                                                                                                                               890.00000       1.38000       0.15000      33.01200       0.35000      15.00000      19.10000      65.90000       3.00000       0.30000       0.28000       0.00000       0.00000       6.50000  
                                                                                                                              1520.00000       1.60000       0.13000      33.01200       0.15000      18.50000      21.50000      60.00000       3.00000       0.30000       0.28000       0.00000      15.00000       7.30000  
167971                            3                 C    1520.00000       0.90000       0.10000  SICL-_SICL-_SIL            
                                                                                                                               150.00000       1.45000       0.17000      10.15200       3.00000      31.00000      50.90000      18.10000       1.00000       0.23000       0.32000       0.00000       0.00000       5.30000  
                                                                                                                              1120.00000       1.60000       0.12000       3.31200       0.75000      39.00000      43.20000      17.80000       1.00000       0.23000       0.32000       0.00000       3.00000       6.20000  
                                                                                                                              1520.00000       1.74000       0.10000       8.38800       0.20000      26.00000      54.00000      20.00000       1.00000       0.23000       0.49000       0.00000      12.00000       7.90000  
167972                            3                 A    1520.00000       0.90000       0.10000  LFS-_LFS-_LFS              
                                                                                                                               360.00000       1.35000       0.12000     101.62800       4.00000       6.00000      16.10000      77.90000       0.00000       0.30000       0.17000       0.00000       0.00000       5.10000  
                                                                                                                              1020.00000       1.35000       0.07000     330.26400       0.75000       3.50000      16.60000      79.90000       0.00000       0.30000       0.32000       0.00000       0.00000       5.10000  
                                                                                                                              1520.00000       1.55000       0.05000     330.26400       0.25000       3.50000      11.50000      85.00000       0.00000       0.30000       0.20000       0.00000       0.00000       6.20000  
167975                            3                 C    1520.00000       0.90000       0.10000  L-_L-_CL                   
                                                                                                                               280.00000       1.38000       0.20000      33.01200       2.00000      16.00000      40.20000      43.80000       3.00000       0.30000       0.37000       0.00000       0.00000       5.90000  
                                                                                                                               860.00000       1.58000       0.14000      33.01200       0.25000      26.50000      38.30000      35.20000       9.00000       0.30000       0.32000       0.00000       0.00000       6.20000  
                                                                                                                              1520.00000       1.70000       0.08000       3.31200       0.25000      35.00000      43.00000      22.00000       9.00000       0.30000       0.37000       0.00000      15.00000       7.30000  
167976                            4                 B    1520.00000       0.90000       0.10000  SIL-_L-_L-_SR-_GR-LS_SIL   
                                                                                                                               250.00000       1.30000       0.22000      33.01200       3.50000      21.00000      52.70000      26.30000       6.00000       0.30000       0.32000       0.00000       0.00000       6.50000  
                                                                                                                               690.00000       1.35000       0.19000      27.93600       0.75000      24.00000      46.00000      30.00000       9.00000       0.30000       0.37000       0.00000       0.00000       6.20000  
                                                                                                                              1020.00000       1.33000       0.15000      83.84400       0.35000      18.50000      46.50000      35.00000       9.00000       0.30000       0.43000       0.00000       5.00000       6.70000  
                                                                                                                              1520.00000       1.30000       0.13000      83.84400       0.20000      18.50000      31.50000      50.00000       3.00000       0.30000       0.32000       0.00000       5.00000       6.70000  
167977                            3                 B    1520.00000       0.90000       0.10000  L-_CL-_SR-_GRV-S_GR-L      
                                                                                                                               200.00000       1.40000       0.20000      33.01200       2.50000      17.00000      39.70000      43.30000       3.00000       0.30000       0.32000       0.00000       0.00000       5.90000  
                                                                                                                              1090.00000       1.43000       0.14000      33.01200       0.75000      25.00000      39.20000      35.80000       1.00000       0.30000       0.32000       0.00000       0.00000       5.50000  
                                                                                                                              1520.00000       1.45000       0.07000     101.62800       0.20000      10.00000      25.00000      65.00000       3.00000       0.30000       0.28000       0.00000       5.00000       6.80000  
167988                            2                 C     760.00000       0.90000       0.10000  SIL-_CL                    
                                                                                                                               250.00000       1.38000       0.19000      33.01200       3.00000      20.50000      53.10000      26.40000       1.00000       0.30000       0.32000       0.00000       0.00000       5.50000  
                                                                                                                               760.00000       1.45000       0.15000      33.01200       0.75000      28.00000      50.00000      22.00000       2.00000       0.30000       0.37000       0.00000       0.00000       5.30000  
172100                            2                 A    2030.00000       0.90000       0.10000  MUCK-_S                    
                                                                                                                               860.00000       0.21000       0.40000      39.60000      67.30000       0.00000       0.00000       0.00000       0.00000       0.06000       0.00000       0.60000       0.00000       0.00000  
                                                                                                                              2030.00000       1.55000       0.06000     198.00000       0.30000       2.00000       4.00000      94.00000      10.00000       0.06000       0.02000       1.60000      15.00000       8.00000  
172103                            2                 D     710.00000       0.90000       0.10000  CL-_C                      
                                                                                                                               150.00000       1.25000       0.19000      27.93600       3.00000      33.50000      32.30000      34.20000      11.00000       0.30000       0.28000       0.00000       0.00000       4.80000  
                                                                                                                               710.00000       1.35000       0.11000       2.55600       0.50000      47.50000      46.30000       6.20000       6.00000       0.30000       0.32000       0.00000       0.00000       4.80000  
172104                            4                 C    2030.00000       0.90000       0.10000  L-_CL-_L-_SIL              
                                                                                                                               130.00000       1.35000       0.21000      33.01200       1.50000      19.50000      38.10000      42.40000       3.00000       0.30000       0.37000       0.00000       0.00000       6.20000  
                                                                                                                               690.00000       1.55000       0.18000      33.01200       0.50000      29.00000      37.00000      34.00000       3.00000       0.30000       0.32000       0.00000       0.00000       5.00000  
                                                                                                                               860.00000       1.58000       0.16000      10.15200       0.25000      29.00000      37.00000      34.00000       3.00000       0.30000       0.37000       0.00000       5.00000       6.70000  
                                                                                                                              2030.00000       1.65000       0.10000      10.15200       0.25000      20.00000      37.90000      42.10000       3.00000       0.30000       0.43000       0.00000      11.00000       7.90000  
172105                            4                 C    2030.00000       0.90000       0.10000  L-_CL-_L-_L                
                                                                                                                               130.00000       1.35000       0.21000      33.01200       2.00000      19.50000      38.10000      42.40000       3.00000       0.30000       0.32000       0.00000       0.00000       6.20000  
                                                                                                                               970.00000       1.55000       0.18000      33.01200       0.50000      29.00000      37.00000      34.00000       3.00000       0.30000       0.32000       0.00000       0.00000       5.00000  
                                                                                                                              1320.00000       1.58000       0.16000      10.15200       0.25000      29.00000      37.00000      34.00000       3.00000       0.30000       0.37000       0.00000       5.00000       6.70000  
                                                                                                                              2030.00000       1.65000       0.10000      10.15200       0.25000      20.00000      37.90000      42.10000       3.00000       0.30000       0.43000       0.00000      11.00000       7.90000  
172106                            4                 C    2030.00000       0.90000       0.10000  FSL-_L-_SIL-_SR-_VFSL_SICL  
                                                                                                                               250.00000       1.48000       0.16000      33.01200       2.00000      17.00000      19.50000      63.50000       0.00000       0.30000       0.24000       0.00000       0.00000       6.50000  
                                                                                                                               300.00000       1.48000       0.16000      33.01200       0.30000      17.00000      69.30000      13.70000       3.00000       0.30000       0.55000       0.00000       0.00000       6.50000  
                                                                                                                               910.00000       1.55000       0.15000      33.01200       0.30000      25.00000      65.90000       9.10000       3.00000       0.30000       0.49000       0.00000       0.00000       6.50000  
                                                                                                                              2030.00000       1.48000       0.15000      33.01200       0.05000      21.00000      29.00000      50.00000       3.00000       0.30000       0.32000       0.00000      18.00000       7.90000  
172107                            3                 C    2030.00000       0.90000       0.10000  SIL-_SICL-_SR-_VFSL_SICL   
                                                                                                                               230.00000       1.38000       0.17000      33.01200       2.00000      22.50000      68.00000       9.50000       0.00000       0.30000       0.43000       0.00000       0.00000       6.50000  
                                                                                                                               810.00000       1.55000       0.15000      33.01200       0.30000      25.00000      65.90000       9.10000       3.00000       0.30000       0.49000       0.00000       0.00000       6.50000  
                                                                                                                              2030.00000       1.48000       0.15000      33.01200       0.05000      21.00000      29.00000      50.00000       3.00000       0.30000       0.32000       0.00000      18.00000       7.90000  
172110                            3                 C    2030.00000       0.90000       0.10000  L-_SICL-_SICL              
                                                                                                                               300.00000       1.40000       0.19000      33.01200       3.00000      20.00000      37.90000      42.10000       1.00000       0.23000       0.28000       0.00000       0.00000       5.90000  
                                                                                                                               860.00000       1.55000       0.14000       8.38800       0.75000      38.50000      54.10000       7.40000       1.00000       0.23000       0.37000       0.00000       3.00000       6.20000  
                                                                                                                              2030.00000       1.73000       0.10000       3.31200       0.25000      28.50000      37.30000      34.20000       1.00000       0.23000       0.37000       0.00000      16.00000       7.90000  
172111                            4                 C    2000.00000       0.90000       0.10000  SIL-_SICL-_SICL-_CL        
                                                                                                                               250.00000       1.40000       0.21000      33.01200       2.75000      20.00000      60.00000      20.00000       3.00000       0.29000       0.43000       0.00000       0.00000       6.20000  
                                                                                                                               740.00000       1.55000       0.15000       3.31200       1.00000      38.00000      47.00000      15.00000      10.00000       0.29000       0.37000       0.00000       0.00000       5.90000  
                                                                                                                              1070.00000       1.55000       0.12000       3.31200       0.75000      35.00000      47.00000      18.00000       1.00000       0.29000       0.37000       0.00000       0.00000       7.00000  
                                                                                                                              2000.00000       1.70000       0.09000       3.31200       0.25000      28.00000      50.00000      22.00000       2.00000       0.29000       0.43000       0.00000      15.00000       7.90000  
172112                            4                 C    2000.00000       0.90000       0.10000  SIL-_SICL-_SICL-_CL        
                                                                                                                               230.00000       1.40000       0.21000      33.01200       2.50000      22.00000      58.00000      20.00000       3.00000       0.29000       0.43000       0.00000       0.00000       6.20000  
                                                                                                                               740.00000       1.55000       0.15000       3.31200       1.00000      38.00000      47.00000      15.00000      10.00000       0.29000       0.37000       0.00000       0.00000       5.90000  
                                                                                                                              1020.00000       1.55000       0.12000       3.31200       0.75000      35.00000      47.00000      18.00000       1.00000       0.29000       0.37000       0.00000       0.00000       7.00000  
                                                                                                                              2000.00000       1.70000       0.09000       3.31200       0.25000      28.00000      50.00000      22.00000       2.00000       0.29000       0.43000       0.00000      15.00000       7.90000  
172113                            4                 A    2030.00000       0.90000       0.10000  LFS-_LS-_SL-_SR-_FS_SICL   
                                                                                                                               250.00000       1.33000       0.12000     330.26400       1.75000      10.00000       6.50000      83.50000       3.00000       0.30000       0.15000       0.00000       0.00000       6.50000  
                                                                                                                               690.00000       1.33000       0.09000     330.26400       0.65000      10.00000       6.50000      83.50000       3.00000       0.30000       0.24000       0.00000       0.00000       6.50000  
                                                                                                                               940.00000       1.38000       0.15000      33.01200       0.30000      15.00000      19.10000      65.90000       3.00000       0.30000       0.24000       0.00000       0.00000       6.50000  
                                                                                                                              2030.00000       1.60000       0.13000      33.01200       0.15000      18.50000      31.50000      50.00000       3.00000       0.30000       0.37000       0.00000      15.00000       7.30000  
172114                            3                 A    2030.00000       0.90000       0.10000  LFS-_LFS-_SR-_FS_SICL      
                                                                                                                               250.00000       1.33000       0.12000     330.26400       1.75000      10.00000       6.50000      83.50000       3.00000       0.30000       0.15000       0.00000       0.00000       6.50000  
                                                                                                                               660.00000       1.33000       0.09000     330.26400       0.65000      10.00000       6.50000      83.50000       3.00000       0.30000       0.24000       0.00000       0.00000       6.50000  
                                                                                                                              2030.00000       1.60000       0.13000      33.01200       0.15000      18.50000      31.50000      50.00000       3.00000       0.30000       0.37000       0.00000      15.00000       7.30000  
172115                            3                 D     610.00000       0.90000       0.10000  SIL-_CN-SICL-_CNV-SICL     
                                                                                                                               130.00000       1.40000       0.21000      33.01200       2.00000      21.00000      52.70000      26.30000       6.00000       0.30000       0.43000       0.00000       0.00000       4.60000  
                                                                                                                               430.00000       1.53000       0.14000       3.31200       0.50000      31.00000      49.00000      20.00000       3.00000       0.30000       0.37000       0.00000       0.00000       4.60000  
                                                                                                                               610.00000       1.50000       0.14000       3.31200       0.25000      37.50000      54.90000       7.60000       6.00000       0.30000       0.37000       0.00000       0.00000       4.60000  
172117                            4                 C    2000.00000       0.90000       0.10000  SIL-_SICL-_SICL-_CL        
                                                                                                                               230.00000       1.40000       0.19000      33.01200       2.50000      18.00000      59.00000      23.00000       3.00000       0.29000       0.43000       0.00000       0.00000       6.20000  
                                                                                                                               860.00000       1.60000       0.15000       3.31200       0.75000      36.00000      45.00000      19.00000      11.00000       0.29000       0.37000       0.00000       0.00000       5.50000  
                                                                                                                              1070.00000       1.60000       0.12000       3.31200       0.75000      33.00000      49.00000      18.00000       2.00000       0.29000       0.37000       0.00000       2.00000       7.00000  
                                                                                                                              2000.00000       1.75000       0.09000       3.27600       0.50000      28.00000      44.00000      28.00000       3.00000       0.29000       0.43000       0.00000      15.00000       7.90000  
172118                            3                 C    2030.00000       0.90000       0.10000  SICL-_SICL-_SICL           
                                                                                                                               150.00000       1.45000       0.20000      10.15200       1.25000      29.50000      52.30000      18.20000       1.00000       0.30000       0.37000       0.00000       0.00000       5.90000  
                                                                                                                               740.00000       1.58000       0.14000       8.38800       0.75000      38.50000      54.10000       7.40000       1.00000       0.30000       0.37000       0.00000       5.00000       6.20000  
                                                                                                                              2030.00000       1.74000       0.10000       3.31200       0.25000      28.50000      37.30000      34.20000       3.00000       0.30000       0.37000       0.00000      15.00000       7.90000  
172122                            4                 B    2030.00000       0.90000       0.10000  L-_CL-_GR-COSL-_GR-SL      
                                                                                                                               230.00000       1.40000       0.16000      33.01200       2.00000      11.50000      43.20000      45.30000       9.00000       0.30000       0.37000       0.00000       0.00000       5.90000  
                                                                                                                               580.00000       1.43000       0.13000     101.62800       0.65000      22.50000      40.40000      37.10000      20.00000       0.30000       0.32000       0.00000       0.00000       5.50000  
                                                                                                                              1040.00000       1.43000       0.09000     101.62800       0.35000      11.50000      43.20000      45.30000       3.00000       0.30000       0.43000       0.00000       0.00000       5.80000  
                                                                                                                              2030.00000       1.43000       0.10000     101.62800       0.20000      10.00000      23.40000      66.60000       3.00000       0.30000       0.28000       0.00000       3.00000       6.50000  
172123                            3                 C    2030.00000       0.90000       0.10000  L-_L-_SR-_LS_SIL           
                                                                                                                               280.00000       1.45000       0.22000      33.01200       5.50000      15.50000      40.50000      44.00000       0.00000       0.16000       0.32000       0.00000       0.00000       7.00000  