tiledrain.str: written by SWAT+ editor v2.0.4 on 2022-01-17 18:35
name                        dp          t_fc           lag           rad          dist         drain          pump      lat_ksat  
mw24_1000           1000.00000      24.00000      96.00000     100.00000      30.00000      10.00000       1.00000       2.00000
OWC_drain            762.00000      24.00000      96.00000      20.00000   12192.00000      10.00000       1.00000       1.00000
OWC_drainOrig        762.00000      24.00000      96.00000      20.00000      12.19200      12.70000       1.00000       4.00000
