time.sim: written by SWAT+ Toolbox v0.7.6
day_start  yrc_start   day_end   yrc_end      step  
        1      2008         50      2008         0  

