time.sim: written by SWAT+ Toolbox v0.7.6
day_start  yrc_start   day_end   yrc_end      step  
        1      2008        366      2020         0  

