tmp.cli: Temperature file names - file written by SWAT+ editor 2022-01-21 12:20:49.108653
filename
owcmet_tmp.tmp
