topography.hyd: written by SWAT+ editor v2.0.4 on 2022-01-21 12:23
name                       slp       slp_len       lat_len      dist_cha         depos  
topohru0001            0.05600      30.00000      30.00000     121.00000       1.00000
topohru0002            0.04661      60.00000      60.00000     121.00000       1.00000
topohru0003            0.10027      10.00000      10.00000     121.00000       1.00000
topohru0004            0.06272      30.00000      30.00000     121.00000       1.00000
topohru0005            0.07830      30.00000      30.00000     121.00000       1.00000
topohru0006            0.14040      10.00000      10.00000     121.00000       1.00000
topohru0007            0.05682      30.00000      30.00000     121.00000       1.00000
topohru0008            0.16091      10.00000      10.00000     121.00000       1.00000
topohru0009            0.02510      90.00000      90.00000     121.00000       1.00000
topohru0010            0.04991      60.00000      60.00000     121.00000       1.00000
topohru0011            0.08901      10.00000      10.00000     121.00000       1.00000
topohru0012            0.01571      90.00000      90.00000     121.00000       1.00000
topohru0013            0.10335      10.00000      10.00000     121.00000       1.00000
topohru0014            0.10966      10.00000      10.00000     121.00000       1.00000
topohru0015            0.03231      60.00000      60.00000     121.00000       1.00000
topohru0016            0.05100      30.00000      30.00000     121.00000       1.00000
topohru0017            0.08309      10.00000      10.00000     121.00000       1.00000
topohru0018            0.08067      10.00000      10.00000     121.00000       1.00000
topohru0019            0.12868      10.00000      10.00000     121.00000       1.00000
topohru0020            0.16542      10.00000      10.00000     121.00000       1.00000
topohru0021            0.01500      90.00000      90.00000     121.00000       1.00000
topohru0022            0.06201      30.00000      30.00000     121.00000       1.00000
topohru0023            0.08185      10.00000      10.00000     121.00000       1.00000
topohru0024            0.11272      10.00000      10.00000     121.00000       1.00000
topohru0025            0.02111      90.00000      90.00000     121.00000       1.00000
topohru0026            0.02040      90.00000      90.00000     121.00000       1.00000
topohru0027            0.03200      60.00000      60.00000     121.00000       1.00000
topohru0028            0.02340      90.00000      90.00000     121.00000       1.00000
topohru0029            0.18475      10.00000      10.00000     121.00000       1.00000
topohru0030            0.12776      10.00000      10.00000     121.00000       1.00000
topohru0031            0.04242      60.00000      60.00000     121.00000       1.00000
topohru0032            0.07448      30.00000      30.00000     121.00000       1.00000
topohru0033            0.04911      60.00000      60.00000     121.00000       1.00000
topohru0034            0.06405      30.00000      30.00000     121.00000       1.00000
topohru0035            0.03188      60.00000      60.00000     121.00000       1.00000
topohru0036            0.04814      60.00000      60.00000     121.00000       1.00000
topohru0037            0.15793      10.00000      10.00000     121.00000       1.00000
topohru0038            0.05846      30.00000      30.00000     121.00000       1.00000
topohru0039            0.13289      10.00000      10.00000     121.00000       1.00000
topohru0040            0.15391      10.00000      10.00000     121.00000       1.00000
topohru0041            0.08963      10.00000      10.00000     121.00000       1.00000
topohru0042            0.20088      10.00000      10.00000     121.00000       1.00000
topohru0043            0.02260      90.00000      90.00000     121.00000       1.00000
topohru0044            0.06296      30.00000      30.00000     121.00000       1.00000
topohru0045            0.01510      90.00000      90.00000     121.00000       1.00000
topohru0046            0.08962      10.00000      10.00000     121.00000       1.00000
topohru0047            0.00000     121.00000     121.00000     121.00000       1.00000
topohru0048            0.00262     121.00000     121.00000     121.00000       1.00000
topohru0049            0.00463     121.00000     121.00000     121.00000       1.00000
topohru0050            0.00790     121.00000     121.00000     121.00000       1.00000
topohru0051            0.00379     121.00000     121.00000     121.00000       1.00000
topohru0052            0.03849      60.00000      60.00000     121.00000       1.00000
topohru0053            0.03433      60.00000      60.00000     121.00000       1.00000
topohru0054            0.08438      10.00000      10.00000     121.00000       1.00000
topohru0055            0.07610      30.00000      30.00000     121.00000       1.00000
topohru0056            0.00427     121.00000     121.00000     121.00000       1.00000
topohru0057            0.00857     121.00000     121.00000     121.00000       1.00000
topohru0058            0.03348      60.00000      60.00000     121.00000       1.00000
topohru0059            0.01874      90.00000      90.00000     121.00000       1.00000
topohru0060            0.06647      30.00000      30.00000     121.00000       1.00000
topohru0061            0.11999      10.00000      10.00000     121.00000       1.00000
topohru0062            0.04089      60.00000      60.00000     121.00000       1.00000
topohru0063            0.04200      60.00000      60.00000     121.00000       1.00000
topohru0064            0.01218      90.00000      90.00000     121.00000       1.00000
topohru0065            0.02299      90.00000      90.00000     121.00000       1.00000
topohru0066            0.00653     121.00000     121.00000     121.00000       1.00000
topohru0067            0.00000     121.00000     121.00000     121.00000       1.00000
topohru0068            0.03427      60.00000      60.00000     121.00000       1.00000
topohru0069            0.02652      90.00000      90.00000     121.00000       1.00000
topohru0070            0.02921      90.00000      90.00000     121.00000       1.00000
topohru0071            0.02100      90.00000      90.00000     121.00000       1.00000
topohru0072            0.01157      90.00000      90.00000     121.00000       1.00000
topohru0073            0.00000     121.00000     121.00000     121.00000       1.00000
topohru0074            0.01846      90.00000      90.00000     121.00000       1.00000
topohru0075            0.01765      90.00000      90.00000     121.00000       1.00000
topohru0076            0.02275      90.00000      90.00000     121.00000       1.00000
topohru0077            0.01019      90.00000      90.00000     121.00000       1.00000
topohru0078            0.02604      90.00000      90.00000     121.00000       1.00000
topohru0079            0.00162     121.00000     121.00000     121.00000       1.00000
topohru0080            0.02205      90.00000      90.00000     121.00000       1.00000
topohru0081            0.14402      10.00000      10.00000     121.00000       1.00000
topohru0082            0.03704      60.00000      60.00000     121.00000       1.00000
topohru0083            0.14637      10.00000      10.00000     121.00000       1.00000
topohru0084            0.09515      10.00000      10.00000     121.00000       1.00000
topohru0085            0.09055      10.00000      10.00000     121.00000       1.00000
topohru0086            0.13800      10.00000      10.00000     121.00000       1.00000
topohru0087            0.14834      10.00000      10.00000     121.00000       1.00000
topohru0088            0.15708      10.00000      10.00000     121.00000       1.00000
topohru0089            0.04359      60.00000      60.00000     121.00000       1.00000
topohru0090            0.01864      90.00000      90.00000     121.00000       1.00000
topohru0091            0.16322      10.00000      10.00000     121.00000       1.00000
topohru0092            0.06940      30.00000      30.00000     121.00000       1.00000
topohru0093            0.00446     121.00000     121.00000     121.00000       1.00000
topohru0094            0.01600      90.00000      90.00000     121.00000       1.00000
topohru0095            0.01088      90.00000      90.00000     121.00000       1.00000
topohru0096            0.00746     121.00000     121.00000     121.00000       1.00000
topohru0097            0.00540     121.00000     121.00000     121.00000       1.00000
topohru0098            0.00281     121.00000     121.00000     121.00000       1.00000
topohru0099            0.04691      60.00000      60.00000     121.00000       1.00000
topohru0100            0.14035      10.00000      10.00000     121.00000       1.00000
topohru0101            0.00000     121.00000     121.00000     121.00000       1.00000
topohru0102            0.01050      90.00000      90.00000     121.00000       1.00000
topohru0103            0.04116      60.00000      60.00000     121.00000       1.00000
topohru0104            0.02702      90.00000      90.00000     121.00000       1.00000
topohru0105            0.01724      90.00000      90.00000     121.00000       1.00000
topohru0106            0.12452      10.00000      10.00000     121.00000       1.00000
topohru0107            0.03254      60.00000      60.00000     121.00000       1.00000
topohru0108            0.00580     121.00000     121.00000     121.00000       1.00000
topohru0109            0.07943      30.00000      30.00000     121.00000       1.00000
topohru0110            0.04129      60.00000      60.00000     121.00000       1.00000
topohru0111            0.04165      60.00000      60.00000     121.00000       1.00000
topohru0112            0.01490      90.00000      90.00000     121.00000       1.00000
topohru0113            0.09011      10.00000      10.00000     121.00000       1.00000
topohru0114            0.01763      90.00000      90.00000     121.00000       1.00000
topohru0115            0.00976     121.00000     121.00000     121.00000       1.00000
topohru0116            0.01123      90.00000      90.00000     121.00000       1.00000
topohru0117            0.13931      10.00000      10.00000     121.00000       1.00000
topohru0118            0.01280      90.00000      90.00000     121.00000       1.00000
topohru0119            0.12105      10.00000      10.00000     121.00000       1.00000
topohru0120            0.00733     121.00000     121.00000     121.00000       1.00000
topohru0121            0.02484      90.00000      90.00000     121.00000       1.00000
topohru0122            0.05092      30.00000      30.00000     121.00000       1.00000
topohru0123            0.00050     121.00000     121.00000     121.00000       1.00000
topohru0124            0.05723      30.00000      30.00000     121.00000       1.00000
topohru0125            0.00986     121.00000     121.00000     121.00000       1.00000
topohru0126            0.05410      30.00000      30.00000     121.00000       1.00000
topohru0127            0.00767     121.00000     121.00000     121.00000       1.00000
topohru0128            0.00988     121.00000     121.00000     121.00000       1.00000
topohru0129            0.00000     121.00000     121.00000     121.00000       1.00000
topohru0130            0.02611      90.00000      90.00000     121.00000       1.00000
topohru0131            0.00281     121.00000     121.00000     121.00000       1.00000
topohru0132            0.03217      60.00000      60.00000     121.00000       1.00000
topohru0133            0.00942     121.00000     121.00000     121.00000       1.00000
topohru0134            0.00071     121.00000     121.00000     121.00000       1.00000
topohru0135            0.01068      90.00000      90.00000     121.00000       1.00000
topohru0136            0.00729     121.00000     121.00000     121.00000       1.00000
topohru0137            0.00239     121.00000     121.00000     121.00000       1.00000
topohru0138            0.00000     121.00000     121.00000     121.00000       1.00000
topohru0139            0.00840     121.00000     121.00000     121.00000       1.00000
topohru0140            0.01539      90.00000      90.00000     121.00000       1.00000
topohru0141            0.00000     121.00000     121.00000     121.00000       1.00000
topohru0142            0.00000     121.00000     121.00000     121.00000       1.00000
topohru0143            0.19732      10.00000      10.00000     121.00000       1.00000
topohru0144            0.05086      30.00000      30.00000     121.00000       1.00000
topohru0145            0.19597      10.00000      10.00000     121.00000       1.00000
topohru0146            0.08906      10.00000      10.00000     121.00000       1.00000
topohru0147            0.24381      10.00000      10.00000     121.00000       1.00000
topohru0148            0.08230      10.00000      10.00000     121.00000       1.00000
topohru0149            0.14990      10.00000      10.00000     121.00000       1.00000
topohru0150            0.05968      30.00000      30.00000     121.00000       1.00000
topohru0151            0.19600      10.00000      10.00000     121.00000       1.00000
topohru0152            0.14435      10.00000      10.00000     121.00000       1.00000
topohru0153            0.06044      30.00000      30.00000     121.00000       1.00000
topohru0154            0.04223      60.00000      60.00000     121.00000       1.00000
topohru0155            0.04738      60.00000      60.00000     121.00000       1.00000
topohru0156            0.00383     121.00000     121.00000     121.00000       1.00000
topohru0157            0.13551      10.00000      10.00000     121.00000       1.00000
topohru0158            0.16318      10.00000      10.00000     121.00000       1.00000
topohru0159            0.09713      10.00000      10.00000     121.00000       1.00000
topohru0160            0.10809      10.00000      10.00000     121.00000       1.00000
topohru0161            0.01881      90.00000      90.00000     121.00000       1.00000
topohru0162            0.02497      90.00000      90.00000     121.00000       1.00000
topohru0163            0.02812      90.00000      90.00000     121.00000       1.00000
topohru0164            0.06722      30.00000      30.00000     121.00000       1.00000
topohru0165            0.03042      60.00000      60.00000     121.00000       1.00000
topohru0166            0.05381      30.00000      30.00000     121.00000       1.00000
topohru0167            0.00240     121.00000     121.00000     121.00000       1.00000
topohru0168            0.03754      60.00000      60.00000     121.00000       1.00000
topohru0169            0.00000     121.00000     121.00000     121.00000       1.00000
topohru0170            0.07849      30.00000      30.00000     121.00000       1.00000
topohru0171            0.07161      30.00000      30.00000     121.00000       1.00000
topohru0172            0.00661     121.00000     121.00000     121.00000       1.00000
topohru0173            0.03144      60.00000      60.00000     121.00000       1.00000
topohru0174            0.22011      10.00000      10.00000     121.00000       1.00000
topohru0175            0.00000     121.00000     121.00000     121.00000       1.00000
topohru0176            0.00000     121.00000     121.00000     121.00000       1.00000
topohru0177            0.18936      10.00000      10.00000     121.00000       1.00000
topohru0178            0.29216      10.00000      10.00000     121.00000       1.00000
topohru0179            0.04386      60.00000      60.00000     121.00000       1.00000
topohru0180            0.23766      10.00000      10.00000     121.00000       1.00000
topohru0181            0.18239      10.00000      10.00000     121.00000       1.00000
topohru0182            0.17354      10.00000      10.00000     121.00000       1.00000
topohru0183            0.02052      90.00000      90.00000     121.00000       1.00000
topohru0184            0.02951      90.00000      90.00000     121.00000       1.00000
topohru0185            0.05120      30.00000      30.00000     121.00000       1.00000
topohru0186            0.16411      10.00000      10.00000     121.00000       1.00000
topohru0187            0.00822     121.00000     121.00000     121.00000       1.00000
topohru0188            0.14122      10.00000      10.00000     121.00000       1.00000
topohru0189            0.00000     121.00000     121.00000     121.00000       1.00000
topohru0190            0.01888      90.00000      90.00000     121.00000       1.00000
topohru0191            0.01626      90.00000      90.00000     121.00000       1.00000
topohru0192            0.01641      90.00000      90.00000     121.00000       1.00000
topohru0193            0.00000     121.00000     121.00000     121.00000       1.00000
topohru0194            0.00925     121.00000     121.00000     121.00000       1.00000
topohru0195            0.03851      60.00000      60.00000     121.00000       1.00000
topohru0196            0.00491     121.00000     121.00000     121.00000       1.00000
topohru0197            0.05134      30.00000      30.00000     121.00000       1.00000
topohru0198            0.03946      60.00000      60.00000     121.00000       1.00000
topohru0199            0.04922      60.00000      60.00000     121.00000       1.00000
topohru0200            0.00840     121.00000     121.00000     121.00000       1.00000
topohru0201            0.00000     121.00000     121.00000     121.00000       1.00000
topohru0202            0.05716      30.00000      30.00000     121.00000       1.00000
topohru0203            0.01000     121.00000     121.00000     121.00000       1.00000
topohru0204            0.00000     121.00000     121.00000     121.00000       1.00000
topohru0205            0.01354      90.00000      90.00000     121.00000       1.00000
topohru0206            0.05713      30.00000      30.00000     121.00000       1.00000
topohru0207            0.00832     121.00000     121.00000     121.00000       1.00000
topohru0208            0.00000     121.00000     121.00000     121.00000       1.00000
topohru0209            0.00000     121.00000     121.00000     121.00000       1.00000
topohru0210            0.00000     121.00000     121.00000     121.00000       1.00000
topohru0211            0.00992     121.00000     121.00000     121.00000       1.00000
topohru0212            0.00000     121.00000     121.00000     121.00000       1.00000
topohru0213            0.11172      10.00000      10.00000     121.00000       1.00000
topohru0214            0.10115      10.00000      10.00000     121.00000       1.00000
topohru0215            0.02017      90.00000      90.00000     121.00000       1.00000
topohru0216            0.00000     121.00000     121.00000     121.00000       1.00000
topohru0217            0.06869      30.00000      30.00000     121.00000       1.00000
topohru0218            0.03623      60.00000      60.00000     121.00000       1.00000
topohru0219            0.02994      90.00000      90.00000     121.00000       1.00000
topohru0220            0.06004      30.00000      30.00000     121.00000       1.00000
topohru0221            0.07495      30.00000      30.00000     121.00000       1.00000
topohru0222            0.13502      10.00000      10.00000     121.00000       1.00000
topohru0223            0.01176      90.00000      90.00000     121.00000       1.00000
topohru0224            0.06153      30.00000      30.00000     121.00000       1.00000
topohru0225            0.03075      60.00000      60.00000     121.00000       1.00000
topohru0226            0.03472      60.00000      60.00000     121.00000       1.00000
topohru0227            0.03349      60.00000      60.00000     121.00000       1.00000
topohru0228            0.14526      10.00000      10.00000     121.00000       1.00000
topohru0229            0.00000     121.00000     121.00000     121.00000       1.00000
topohru0230            0.00000     121.00000     121.00000     121.00000       1.00000
topohru0231            0.08511      10.00000      10.00000     121.00000       1.00000
topohru0232            0.00925     121.00000     121.00000     121.00000       1.00000
topohru0233            0.00000     121.00000     121.00000     121.00000       1.00000
topohru0234            0.15581      10.00000      10.00000     121.00000       1.00000
topohru0235            0.08223      10.00000      10.00000     121.00000       1.00000
topohru0236            0.23107      10.00000      10.00000     121.00000       1.00000
topohru0237            0.14945      10.00000      10.00000     121.00000       1.00000
topohru0238            0.02857      90.00000      90.00000     121.00000       1.00000
topohru0239            0.09941      10.00000      10.00000     121.00000       1.00000
topohru0240            0.01462      90.00000      90.00000     121.00000       1.00000
topohru0241            0.13213      10.00000      10.00000     121.00000       1.00000
topohru0242            0.10612      10.00000      10.00000     121.00000       1.00000
topohru0243            0.13354      10.00000      10.00000     121.00000       1.00000
topohru0244            0.03299      60.00000      60.00000     121.00000       1.00000
topohru0245            0.17322      10.00000      10.00000     121.00000       1.00000
topohru0246            0.04740      60.00000      60.00000     121.00000       1.00000
topohru0247            0.00674     121.00000     121.00000     121.00000       1.00000
topohru0248            0.00000     121.00000     121.00000     121.00000       1.00000
topohru0249            0.00000     121.00000     121.00000     121.00000       1.00000
topohru0250            0.03599      60.00000      60.00000     121.00000       1.00000
topohru0251            0.15809      10.00000      10.00000     121.00000       1.00000
topohru0252            0.00926     121.00000     121.00000     121.00000       1.00000
topohru0253            0.00000     121.00000     121.00000     121.00000       1.00000
topohru0254            0.00008     121.00000     121.00000     121.00000       1.00000
topohru0255            0.19149      10.00000      10.00000     121.00000       1.00000
topohru0256            0.05988      30.00000      30.00000     121.00000       1.00000
topohru0257            0.01167      90.00000      90.00000     121.00000       1.00000
topohru0258            0.05502      30.00000      30.00000     121.00000       1.00000
topohru0259            0.04259      60.00000      60.00000     121.00000       1.00000
topohru0260            0.16109      10.00000      10.00000     121.00000       1.00000
topohru0261            0.05915      30.00000      30.00000     121.00000       1.00000
topohru0262            0.03175      60.00000      60.00000     121.00000       1.00000
topohru0263            0.00660     121.00000     121.00000     121.00000       1.00000
topohru0264            0.03625      60.00000      60.00000     121.00000       1.00000
topohru0265            0.06257      30.00000      30.00000     121.00000       1.00000
topohru0266            0.03890      60.00000      60.00000     121.00000       1.00000
topohru0267            0.00137     121.00000     121.00000     121.00000       1.00000
topohru0268            0.06454      30.00000      30.00000     121.00000       1.00000
topohru0269            0.02376      90.00000      90.00000     121.00000       1.00000
topohru0270            0.05118      30.00000      30.00000     121.00000       1.00000
topohru0271            0.05576      30.00000      30.00000     121.00000       1.00000
topohru0272            0.08003      10.00000      10.00000     121.00000       1.00000
topohru0273            0.06261      30.00000      30.00000     121.00000       1.00000
topohru0274            0.03286      60.00000      60.00000     121.00000       1.00000
topohru0275            0.02407      90.00000      90.00000     121.00000       1.00000
topohru0276            0.08118      10.00000      10.00000     121.00000       1.00000
topohru0277            0.31419      10.00000      10.00000     121.00000       1.00000
topohru0278            0.11820      10.00000      10.00000     121.00000       1.00000
topohru0279            0.01066      90.00000      90.00000     121.00000       1.00000
topohru0280            0.08702      10.00000      10.00000     121.00000       1.00000
topohru0281            0.24839      10.00000      10.00000     121.00000       1.00000
topohru0282            0.04805      60.00000      60.00000     121.00000       1.00000
topohru0283            0.00000     121.00000     121.00000     121.00000       1.00000
topohru0284            0.00000     121.00000     121.00000     121.00000       1.00000
topohru0285            0.00000     121.00000     121.00000     121.00000       1.00000
topohru0286            0.06674      30.00000      30.00000     121.00000       1.00000
topohru0287            0.16712      10.00000      10.00000     121.00000       1.00000
topohru0288            0.02250      90.00000      90.00000     121.00000       1.00000
topohru0289            0.08966      10.00000      10.00000     121.00000       1.00000
topohru0290            0.03275      60.00000      60.00000     121.00000       1.00000
topohru0291            0.15379      10.00000      10.00000     121.00000       1.00000
topohru0292            0.06852      30.00000      30.00000     121.00000       1.00000
topohru0293            0.00100     121.00000     121.00000     121.00000       1.00000
topohru0294            0.00924     121.00000     121.00000     121.00000       1.00000
topohru0295            0.00814     121.00000     121.00000     121.00000       1.00000
topohru0296            0.01461      90.00000      90.00000     121.00000       1.00000
topohru0297            0.01480      90.00000      90.00000     121.00000       1.00000
topohru0298            0.00000     121.00000     121.00000     121.00000       1.00000
topohru0299            0.00000     121.00000     121.00000     121.00000       1.00000
topohru0300            0.00000     121.00000     121.00000     121.00000       1.00000
topohru0301            0.05596      30.00000      30.00000     121.00000       1.00000
topohru0302            0.01318      90.00000      90.00000     121.00000       1.00000
topohru0303            0.00000     121.00000     121.00000     121.00000       1.00000
topohru0304            0.00000     121.00000     121.00000     121.00000       1.00000
topohru0305            0.05697      30.00000      30.00000     121.00000       1.00000
topohru0306            0.05133      30.00000      30.00000     121.00000       1.00000
topohru0307            0.02652      90.00000      90.00000     121.00000       1.00000
topohru0308            0.04336      60.00000      60.00000     121.00000       1.00000
topohru0309            0.03898      60.00000      60.00000     121.00000       1.00000
topohru0310            0.00048     121.00000     121.00000     121.00000       1.00000
topohru0311            0.00000     121.00000     121.00000     121.00000       1.00000
topohru0312            0.00000     121.00000     121.00000     121.00000       1.00000
topohru0313            0.01332      90.00000      90.00000     121.00000       1.00000
topohru0314            0.00000     121.00000     121.00000     121.00000       1.00000
topohru0315            0.00000     121.00000     121.00000     121.00000       1.00000
topohru0316            0.07674      30.00000      30.00000     121.00000       1.00000
topohru0317            0.03998      60.00000      60.00000     121.00000       1.00000
topohru0318            0.09859      10.00000      10.00000     121.00000       1.00000
topohru0319            0.02247      90.00000      90.00000     121.00000       1.00000
topohru0320            0.01216      90.00000      90.00000     121.00000       1.00000
topohru0321            0.01947      90.00000      90.00000     121.00000       1.00000
topohru0322            0.00000     121.00000     121.00000     121.00000       1.00000
topohru0323            0.00011     121.00000     121.00000     121.00000       1.00000
topohru0324            0.04183      60.00000      60.00000     121.00000       1.00000
topohru0325            0.00000     121.00000     121.00000     121.00000       1.00000
topohru0326            0.00000     121.00000     121.00000     121.00000       1.00000
topohru0327            0.03891      60.00000      60.00000     121.00000       1.00000
topohru0328            0.00729     121.00000     121.00000     121.00000       1.00000
topohru0329            0.02600      90.00000      90.00000     121.00000       1.00000
topohru0330            0.04101      60.00000      60.00000     121.00000       1.00000
topohru0331            0.09485      10.00000      10.00000     121.00000       1.00000
topohru0332            0.00293     121.00000     121.00000     121.00000       1.00000
topohru0333            0.00828     121.00000     121.00000     121.00000       1.00000
topohru0334            0.00000     121.00000     121.00000     121.00000       1.00000
topohru0335            0.00000     121.00000     121.00000     121.00000       1.00000
topohru0336            0.00000     121.00000     121.00000     121.00000       1.00000
topohru0337            0.00000     121.00000     121.00000     121.00000       1.00000
topohru0338            0.00000     121.00000     121.00000     121.00000       1.00000
topohru0339            0.02367      90.00000      90.00000     121.00000       1.00000