weather-wgn.cli: written by SWAT+ editor v2.0.4 on 2022-01-21 12:22
411n822w                       41.05810     -82.18750     334.00000        32  
 tmp_max_ave   tmp_min_ave    tmp_max_sd    tmp_min_sd       pcp_ave        pcp_sd      pcp_skew       wet_dry       wet_wet      pcp_days       pcp_hhr       slr_ave       dew_ave       wnd_ave  
    -0.11606      -7.02463       6.39626       6.78063      96.15930       5.53098       3.72857       0.54546       0.43567      21.37500      16.73390       6.07179       0.85994       5.22759  
     1.57372      -5.86732       6.14386       6.22830      85.61820       5.51038       3.83107       0.53947       0.42333      18.75000      19.73830       8.76003       0.85253       4.81620  
     7.30746      -1.75134       6.65245       5.90169     116.31600       6.62689       3.30793       0.48276       0.42602      19.21880      21.67620      12.26820       0.81137       4.49401  
    14.40250       3.77555       6.40438       5.43279     127.77600       7.18200       2.92853       0.45953       0.41941      18.03120      19.99570      16.53470       0.76215       4.08522  
    20.90860       9.06971       5.51811       4.90360     123.84000       7.22283       3.18069       0.41485       0.40525      16.65620      21.75070      20.56580       0.71783       3.47548  
    26.23980      13.92850       4.64821       4.48360     118.12900       7.09145       3.35197       0.34416       0.40763      15.56250      24.42370      23.46600       0.69547       3.10764  
    29.01630      16.01570       3.86962       3.81008     101.56000       6.66120       3.65645       0.31810       0.39101      13.90620      20.88070      23.65610       0.66567       2.82721  
    28.69800      15.08870       4.10534       3.87306      72.61480       5.29783       3.90513       0.29201       0.35356      11.84380      17.47890      20.68240       0.65929       2.69032  
    24.13190      11.53070       5.17872       4.71180      73.45980       6.50481       5.12649       0.23163       0.36826      10.43750      23.77960      16.33550       0.67274       3.08847  
    16.41910       6.38153       5.70131       4.83676      76.91950       5.84985       4.16796       0.29780       0.35162      12.53120      17.87120      10.56830       0.70112       3.82657  
     9.24081       1.37269       5.82187       5.17270     104.51200       6.96483       3.48159       0.42694       0.39847      16.31250      20.73710       6.36860       0.77824       4.58540  
     2.30338      -4.17592       6.06403       5.90094      97.07180       5.58411       3.47720       0.53890       0.41536      19.93750      15.74500       4.89071       0.83586       5.03778  
411n825w                       41.05810     -82.50000     304.00000        32  
 tmp_max_ave   tmp_min_ave    tmp_max_sd    tmp_min_sd       pcp_ave        pcp_sd      pcp_skew       wet_dry       wet_wet      pcp_days       pcp_hhr       slr_ave       dew_ave       wnd_ave  
    -0.23631      -7.13531       6.45535       6.96676      92.73330       5.42178       3.84129       0.53571       0.43713      21.37500      16.08200       6.37109       0.85930       5.46318  
     1.48179      -5.83696       6.18075       6.32854      82.54070       5.40395       3.79749       0.53628       0.41908      18.34380      18.89530       9.10502       0.84954       5.03348  
     7.31822      -1.57724       6.65581       5.91439     112.75900       6.45924       3.17624       0.48042       0.42529      19.03120      20.08520      12.48120       0.80757       4.68573  
    14.40990       4.03035       6.35781       5.41525     126.30900       7.24149       3.04487       0.46253       0.41885      17.90620      19.89270      16.62740       0.75942       4.25718  
    20.88700       9.39483       5.45775       4.83047     123.59900       7.18310       3.08556       0.42198       0.40298      16.75000      19.82450      20.65280       0.71686       3.60346  
    26.22710      14.33630       4.57999       4.36302     119.15400       7.08338       3.16689       0.35256       0.40041      15.37500      24.78540      23.61230       0.69374       3.18988  
    28.92820      16.26080       3.80591       3.71566     102.76500       6.86277       4.01171       0.32103       0.38000      14.06250      22.39600      23.72770       0.66799       2.88642  
    28.67330      15.20260       4.02604       3.86136      71.13920       5.17988       3.72462       0.29160       0.36104      12.03120      16.02250      20.71650       0.65954       2.75175  
    24.17040      11.63370       5.16335       4.69862      72.28960       6.35004       5.02766       0.23003       0.37725      10.43750      26.92730      16.45000       0.66900       3.16719  
    16.48620       6.58749       5.69938       4.82891      74.09900       5.66136       4.11064       0.29022       0.35733      12.15620      17.77570      10.70150       0.69245       3.98994  
     9.25322       1.49969       5.85331       5.20121     101.36400       6.87830       3.55774       0.40848       0.40430      16.00000      23.67390       6.49638       0.77076       4.79144  
     2.20749      -4.16342       6.11065       6.03800      94.73920       5.57671       3.61270       0.52646       0.40895      19.56250      17.52210       5.07402       0.83342       5.26265  
411n828w                       41.05810     -82.81250     289.00000        32  
 tmp_max_ave   tmp_min_ave    tmp_max_sd    tmp_min_sd       pcp_ave        pcp_sd      pcp_skew       wet_dry       wet_wet      pcp_days       pcp_hhr       slr_ave       dew_ave       wnd_ave  
    -0.28722      -7.16463       6.49082       7.09245      89.25140       5.28935       3.89438       0.53251       0.42750      20.90620      16.10240       6.47774       0.85870       5.52946  
     1.46637      -5.75947       6.19704       6.38426      79.44450       5.30346       3.84019       0.52096       0.41403      17.81250      19.02090       9.22596       0.84693       5.10480  
     7.40614      -1.35596       6.65150       5.90776     109.16500       6.29901       3.14706       0.50653       0.41543      19.03120      18.86920      12.57280       0.80324       4.75487  
    14.50340       4.28552       6.34575       5.41391     123.02000       7.10966       3.05057       0.46429       0.41549      17.75000      21.60170      16.67670       0.75548       4.32738  
    20.98900       9.74059       5.45066       4.80315     121.65400       7.02914       3.02610       0.40217       0.41243      16.59380      20.53830      20.72550       0.71234       3.65584  
    26.33280      14.71060       4.55316       4.27278     119.05400       7.09748       3.12657       0.33615       0.40862      15.21880      23.95930      23.73180       0.68966       3.21110  
    28.97170      16.46210       3.77503       3.67007     101.29900       6.86574       4.15198       0.32182       0.38688      13.81250      22.67360      23.75970       0.66812       2.88936  
    28.79560      15.28550       3.98596       3.86669      69.15040       5.19114       3.80967       0.27619       0.35635      11.31250      15.36400      20.73580       0.65617       2.75872  
    24.35810      11.74640       5.17157       4.72713      70.37750       6.22597       5.27964       0.23126       0.37838      10.40620      28.49790      16.54640       0.66128       3.17808  
    16.62370       6.80086       5.72033       4.84359      72.65940       5.61233       4.15337       0.29402       0.35897      12.18750      18.25280      10.79930       0.68135       4.04708  
     9.32279       1.61462       5.88622       5.23355      97.17480       6.72001       3.69836       0.39615       0.38945      15.40620      25.55260       6.55796       0.76291       4.85225  
     2.16522      -4.14522       6.15544       6.15145      92.53640       5.54518       3.61779       0.52291       0.40880      19.18750      16.95500       5.14329       0.83157       5.31449  
414n822w                       41.37030     -82.18750     229.00000        32  
 tmp_max_ave   tmp_min_ave    tmp_max_sd    tmp_min_sd       pcp_ave        pcp_sd      pcp_skew       wet_dry       wet_wet      pcp_days       pcp_hhr       slr_ave       dew_ave       wnd_ave  
     0.01411      -6.22756       6.10720       6.20455      87.78220       5.02865       3.85337       0.56129       0.42962      21.31250      14.46100       5.85700       0.85504       5.51885  
     1.44522      -5.29859       5.80928       5.69387      79.49820       5.18254       3.78907       0.53770       0.42404      18.71880      18.54800       8.55075       0.85141       4.95075  
     6.80601      -1.41937       6.44990       5.56357     105.95500       6.20458       3.29313       0.47692       0.42359      18.81250      17.33230      12.41800       0.80715       4.66172  
    14.01570       4.24135       6.48203       5.20243     114.71200       6.96342       3.39157       0.44310       0.40951      17.09380      21.39260      16.82430       0.74346       4.31401  
    20.81310       9.74999       5.77041       4.81725     103.81100       6.64111       3.52830       0.39069       0.39437      15.53120      19.19540      20.96500       0.68687       3.71133  
    26.42760      14.99330       4.92413       4.35559     100.86300       6.38481       3.32408       0.33600       0.38913      14.37500      17.95050      23.84810       0.66061       3.37613  
    29.15590      17.31240       3.96884       3.71370      89.67590       6.80039       4.38214       0.30121       0.36983      12.84380      22.24100      24.09170       0.63632       3.08127  
    28.58270      16.59500       4.21542       3.68611      61.31420       4.95987       4.61182       0.25857       0.36286      10.93750      20.54430      20.89900       0.63719       2.96346  
    24.06370      13.10980       5.17470       4.41363      68.73390       6.41068       5.68317       0.23286       0.36336      10.40620      25.96690      16.41700       0.64997       3.46634  
    16.40950       7.82164       5.61409       4.54026      70.38820       5.30047       3.93873       0.28814       0.37065      12.56250      16.90810      10.49620       0.67815       4.31545  
     9.35737       2.43195       5.64958       4.92200      95.73590       6.36471       3.35165       0.42046       0.39423      16.25000      19.96990       6.21461       0.75855       5.06708  
     2.50074      -3.31708       5.85372       5.56956      93.08860       5.43767       3.65060       0.54519       0.41589      20.06250      15.64760       4.69202       0.82458       5.49070  
414n825w                       41.37030     -82.50000     182.00000        32  
 tmp_max_ave   tmp_min_ave    tmp_max_sd    tmp_min_sd       pcp_ave        pcp_sd      pcp_skew       wet_dry       wet_wet      pcp_days       pcp_hhr       slr_ave       dew_ave       wnd_ave  
    -0.10135      -6.44136       6.20531       6.44946      84.10870       4.96213       3.99928       0.52905       0.42256      20.78120      15.26550       6.25402       0.85137       5.74423  
     1.38760      -5.33973       5.88174       5.88438      76.66140       5.11122       3.94083       0.53438       0.41267      18.25000      17.00010       9.00284       0.84477       5.17935  
     6.94580      -1.30200       6.47833       5.61206     103.27200       6.03491       3.12763       0.47969       0.42308      18.68750      16.91920      12.63860       0.80216       4.85378  
    14.14190       4.38785       6.43898       5.19471     114.38300       7.06684       3.61016       0.46377       0.39560      17.06250      25.55630      16.85840       0.74243       4.48950  
    20.91110       9.98067       5.65815       4.72221     106.75400       6.78058       3.46289       0.37550       0.40365      15.40620      19.97590      20.99870       0.68779       3.83775  
    26.50490      15.19390       4.78520       4.24341     103.18900       6.39253       3.06703       0.33814       0.39789      14.84380      17.77630      23.85570       0.66180       3.43699  
    29.17470      17.28340       3.86426       3.61127      89.44390       6.64756       4.40048       0.30000       0.37379      12.87500      24.89380      24.07150       0.64237       3.11217  
    28.63620      16.40070       4.09467       3.68154      61.55470       4.96976       4.55717       0.26121       0.35942      10.78120      20.98700      20.84590       0.64289       2.98512  
    24.15190      12.87890       5.13348       4.44837      67.62310       6.15616       5.32290       0.23802       0.37126      10.43750      27.14600      16.48960       0.65196       3.49074  
    16.50790       7.71829       5.62009       4.56336      68.58270       5.31095       4.29351       0.29549       0.35623      12.28120      18.71420      10.60070       0.67514       4.41473  
     9.37674       2.36228       5.69352       4.94905      92.47510       6.25009       3.31873       0.40481       0.39563      15.71880      19.68210       6.32459       0.75417       5.20536  
     2.40088      -3.42668       5.91919       5.73738      90.17960       5.38998       3.65436       0.54444       0.40800      19.53120      16.11510       4.91476       0.82026       5.66631  
414n828w                       41.37030     -82.81250     215.00000        32  
 tmp_max_ave   tmp_min_ave    tmp_max_sd    tmp_min_sd       pcp_ave        pcp_sd      pcp_skew       wet_dry       wet_wet      pcp_days       pcp_hhr       slr_ave       dew_ave       wnd_ave  
    -0.21814      -6.67589       6.28667       6.70505      82.38150       4.96221       4.16434       0.53116       0.41832      20.46880      16.43290       6.38439       0.85219       5.68776  
     1.36735      -5.40915       5.96755       6.03994      75.15350       5.10050       4.12431       0.52096       0.41754      17.81250      17.89050       9.13910       0.84265       5.17238  
     7.13199      -1.20695       6.51359       5.65849     101.81300       5.88204       2.99734       0.50125       0.40978      18.53120      16.33890      12.62940       0.79953       4.83272  
    14.32400       4.47376       6.42492       5.23638     113.63800       6.89533       3.32312       0.46062       0.39002      16.90620      24.22370      16.76400       0.74396       4.46111  
    21.06790      10.10360       5.61517       4.72158     109.44700       6.79431       3.33470       0.37822       0.39712      15.18750      19.18040      20.95520       0.69047       3.79847  
    26.63310      15.26270       4.70413       4.20202     108.06400       6.76548       3.22584       0.34297       0.39496      14.87500      21.48330      23.81440       0.66524       3.36398  
    29.28250      17.15880       3.82017       3.59109      91.80240       6.66124       4.31108       0.30944       0.37381      13.12500      27.11450      23.93660       0.64797       3.02883  
    28.80230      16.13310       4.04766       3.71990      63.82540       5.04065       4.38467       0.26000       0.35965      10.68750      20.60910      20.70690       0.64572       2.89525  
    24.35560      12.57170       5.17244       4.51055      67.07320       5.97912       5.10791       0.23520       0.37612      10.46880      26.29710      16.50730       0.65085       3.37138  
    16.63950       7.52491       5.67242       4.64395      68.23900       5.42045       4.67335       0.29133       0.34908      11.90620      20.35500      10.63010       0.67158       4.29965  
     9.39513       2.18353       5.75541       5.02300      90.72900       6.20101       3.37481       0.40558       0.38259      15.43750      19.60940       6.36104       0.75280       5.07818  
     2.28270      -3.62163       5.99875       5.90259      89.00970       5.35838       3.53600       0.52989       0.41167      19.28120      16.16070       4.98544       0.82161       5.54437  
417n822w                       41.68250     -82.18750     174.00000        32  
 tmp_max_ave   tmp_min_ave    tmp_max_sd    tmp_min_sd       pcp_ave        pcp_sd      pcp_skew       wet_dry       wet_wet      pcp_days       pcp_hhr       slr_ave       dew_ave       wnd_ave  
    -0.45016      -4.78480       4.71157       4.99179      82.39650       4.70202       4.17423       0.56250       0.42878      21.50000      18.42580       6.00633       0.85082       6.97823  
    -0.09097      -4.24195       3.93067       4.40524      76.63620       5.20726       4.26513       0.56958       0.41849      18.59380      18.30980       9.04108       0.85922       5.96833  
     3.29171      -0.93602       4.05890       3.94692      99.99250       5.76001       2.97553       0.47059       0.41930      18.78120      15.57970      13.52450       0.83808       5.72192  
     8.89247       4.42010       3.96198       3.55700     111.15500       6.87278       3.32621       0.41080       0.41386      16.68750      23.52070      17.98290       0.79269       5.51684  
    14.89870      10.47310       3.81981       3.70353     101.52700       6.47648       3.25970       0.38788       0.39718      15.50000      18.38730      22.27220       0.75730       4.74714  
    20.99680      16.57850       3.45918       3.50449     100.73100       7.05768       4.43224       0.35130       0.38998      14.34380      25.96960      25.02260       0.73590       4.38358  
    24.52260      20.03980       2.58118       2.48009      88.78440       7.35181       4.72250       0.29833       0.36735      12.25000      25.54970      24.97570       0.70650       4.11868  
    24.49820      19.93400       2.48605       2.42255      64.84330       5.36105       5.19926       0.26959       0.35028      11.06250      25.33400      21.67120       0.69376       4.13817  
    21.08040      16.30210       3.42570       3.36508      73.78550       6.74778       5.20133       0.23511       0.38053      10.59380      27.06580      17.05630       0.68979       4.95870  
    14.79020      10.26630       4.09002       3.78209      71.11210       5.28384       4.18295       0.29913       0.36451      13.03120      19.50130      11.00610       0.70557       6.16808  
     8.64985       4.45008       4.34109       4.08895      92.52470       6.03254       2.99565       0.42046       0.39423      16.25000      13.46850       6.47296       0.76011       6.99635  
     2.48675      -1.55375       4.73950       4.81759      92.00520       5.39015       3.61737       0.56716       0.42000      20.31250      15.59960       4.76334       0.81197       7.37539  
417n825w                       41.68250     -82.50000     174.00000        32  
 tmp_max_ave   tmp_min_ave    tmp_max_sd    tmp_min_sd       pcp_ave        pcp_sd      pcp_skew       wet_dry       wet_wet      pcp_days       pcp_hhr       slr_ave       dew_ave       wnd_ave  
    -0.58211      -5.11511       4.83332       5.21847      80.38680       4.73994       4.35794       0.56467       0.41926      21.09380      19.10890       6.00855       0.85289       6.73916  
    -0.08778      -4.39221       4.03354       4.56592      74.81600       5.15576       4.43446       0.51703       0.42341      18.15620      19.45380       8.94561       0.85811       5.83895  
     3.48391      -0.99303       4.12315       4.06273      99.13200       5.68522       2.95863       0.48756       0.41525      18.43750      15.85640      13.31750       0.83543       5.56709  
     9.15416       4.40372       4.01357       3.64898     111.34200       6.79499       3.08817       0.43602       0.40335      16.81250      18.92690      17.82030       0.79207       5.34227  
    15.17370      10.44540       3.85010       3.76698     105.74000       6.72206       3.37096       0.37400       0.39715      15.34380      20.34300      22.15370       0.75757       4.58697  
    21.24150      16.49040       3.47784       3.56012     106.55200       7.42148       4.28860       0.35124       0.39916      14.87500      25.83440      24.85690       0.73603       4.19716  
    24.73180      19.76970       2.61535       2.56658      89.26960       6.93916       4.20210       0.28878       0.36010      12.06250      22.28330      24.81230       0.70639       3.93006  
    24.72040      19.56330       2.52508       2.56558      67.59410       5.58252       5.03577       0.26060       0.36620      11.09380      25.57610      21.51850       0.69258       3.93536  
    21.26080      15.88140       3.50459       3.53594      73.44180       6.58812       4.83295       0.24121       0.37126      10.43750      24.31620      17.02120       0.68756       4.68052  
    14.82100       9.88601       4.16617       3.93063      70.37600       5.45328       4.52148       0.29685       0.35219      12.15620      21.82160      11.00920       0.70346       5.81868  
     8.55346       4.07542       4.43581       4.21955      90.40470       6.01020       3.04453       0.39648       0.39921      15.81250      12.88510       6.50366       0.76043       6.61084  
     2.29156      -1.91902       4.85763       5.02685      89.14520       5.31577       3.50375       0.55372       0.40514      19.43750      15.03000       4.80448       0.81559       7.00818  
417n828w                       41.68250     -82.81250     174.00000        32  
 tmp_max_ave   tmp_min_ave    tmp_max_sd    tmp_min_sd       pcp_ave        pcp_sd      pcp_skew       wet_dry       wet_wet      pcp_days       pcp_hhr       slr_ave       dew_ave       wnd_ave  
    -0.55190      -5.97459       5.50971       5.93038      79.59880       4.80938       4.51312       0.55352       0.40902      20.78120      19.81790       6.16543       0.85485       6.09350  
     0.52340      -4.90941       4.93735       5.23257      73.57880       5.09502       4.52096       0.51964       0.42059      17.90620      19.94040       8.94528       0.84944       5.41838  
     5.31256      -1.09441       5.27606       4.81140      97.24850       5.51590       2.92189       0.47585       0.41523      18.06250      15.37180      12.86070       0.81429       5.12821  
    11.80320       4.45869       5.23902       4.42828     108.78100       6.53993       2.85755       0.44208       0.39292      16.78120      15.93600      17.17430       0.76330       4.85250  
    18.24850      10.33540       4.66290       4.19754     105.83500       6.62197       3.52960       0.37325       0.40408      15.31250      21.76270      21.49420       0.71614       4.14220  
    24.11680      15.94790       3.98172       3.77300     108.13400       7.70556       5.09947       0.32996       0.40343      14.56250      36.57400      24.23220       0.69157       3.71208  
    27.21480      18.50460       3.15967       2.95935      88.55500       6.54944       3.98473       0.29744       0.38083      12.71880      20.11530      24.21570       0.66667       3.40939  
    26.89090      17.88450       3.27998       3.05164      67.50150       5.57928       5.09798       0.26688       0.36620      11.09380      25.43910      20.92160       0.66091       3.34695  
    22.88190      14.22410       4.37593       3.91411      69.21810       6.04437       4.50262       0.24487       0.36086      10.21880      21.22740      16.67810       0.66141       3.93818  
    15.68210       8.66411       4.93377       4.26411      68.33990       5.46714       4.89132       0.29739       0.33684      11.87500      23.52430      10.68930       0.68312       4.95632  
     8.85876       3.04527       5.09275       4.58329      88.80040       5.99369       3.16622       0.39957       0.39437      15.53120      13.55920       6.33811       0.75512       5.70237  
     2.12517      -2.84900       5.41389       5.47607      87.82840       5.25394       3.38531       0.54144       0.40610      19.46880      14.47720       4.84153       0.82046       6.12870  
