wnd.cli: Wind speed file names - file written by SWAT+ editor 2022-01-21 12:20:49.244865
filename
owcmet_wind.wnd
